/*---------------------------------------------------------------------------*\
| =========                 |                                                 |
| \\      /  F ield         | OpenFOAM: The Open Source CFD Toolbox           |
|  \\    /   O peration     | Version:  2512                                  |
|   \\  /    A nd           | Website:  www.openfoam.com                      |
|    \\/     M anipulation  |                                                 |
\*---------------------------------------------------------------------------*/
Build  : _87ed40d256-20251219 OPENFOAM=2512 version=v2512
Arch   : "LSB;label=32;scalar=64"
Exec   : blockMesh
Date   : Jun 23 2026
Time   : 16:05:00
Host   : cnx044.deucalion.macc.fccn.pt
PID    : 3343522
I/O    : uncollated
Case   : /projects/F202500001HPCVLABEPICURE/ofoam.019/guimaraes/cases/flowCase
nProcs : 1
trapFpe: Floating point exception trapping enabled (FOAM_SIGFPE).
memory pool : not available
fileModificationChecking : Monitoring run-time modified files using timeStampMaster (fileModificationSkew 5, maxFileModificationPolls 20)
allowSystemOperations : Allowing user-supplied system call operations

// * * * * * * * * * * * * * * * * * * * * * * * * * * * * * * * * * * * * * //
Create time

--> FOAM Warning : 
    From void* Foam::dlLibraryTable::openLibrary(const Foam::fileName&, bool)
    in file db/dynamicLibrary/dlLibraryTable/dlLibraryTable.C at line 188
    Could not load "libUseratmosphericModels.so"
libUseratmosphericModels.so: cannot open shared object file: No such file or directory
Creating block mesh from "system/blockMeshDict"
Creating block edges
No non-planar block faces defined
Creating topology blocks

Creating topology patches - from patches section

Reading physicalType from existing boundary file

Default patch type set to empty

Creating block mesh topology

Check topology

	Basic statistics
		Number of internal faces : 21
		Number of boundary faces : 18
		Number of defined boundary faces : 18
		Number of undefined boundary faces : 0
	Checking patch -> block consistency

Creating block offsets
Creating merge list (topological search)...

Creating polyMesh from blockMesh
Creating patches
Creating cells
Creating points with scale (1 1 1)
    Block 0 cell size :
        i : 134.21891 .. 134.21891
        j : 134.21891 .. 134.21891
        k : 156.66667 .. 156.66667

    Block 1 cell size :
        i : 31.854887 .. 63.709773
        j : 134.21891 .. 134.21891
        k : 156.66667 .. 156.66667

    Block 2 cell size :
        i : 31.854887 .. 63.709773
        j : 134.21891 .. 134.21891
        k : 156.66667 .. 156.66667

    Block 3 cell size :
        i : 31.854887 .. 63.709773
        j : 134.21891 .. 134.21891
        k : 156.66667 .. 156.66667

    Block 4 cell size :
        i : 31.854887 .. 63.709773
        j : 134.21891 .. 134.21891
        k : 156.66667 .. 156.66667

    Block 5 cell size :
        i : 134.21891 .. 134.21891
        j : 134.21891 .. 134.21891
        k : 107.73609 .. 215.47219

    Block 6 cell size :
        i : 31.854887 .. 63.709773
        j : 134.21891 .. 134.21891
        k : 107.73609 .. 215.47219

    Block 7 cell size :
        i : 31.854887 .. 63.709773
        j : 134.21891 .. 134.21891
        k : 107.73609 .. 215.47219

    Block 8 cell size :
        i : 31.854887 .. 63.709773
        j : 134.21891 .. 134.21891
        k : 107.73609 .. 215.47219

    Block 9 cell size :
        i : 31.854887 .. 63.709773
        j : 134.21891 .. 134.21891
        k : 107.73609 .. 215.47219

Adding cell zones
    0	square
    1	innerCircle
No patch pairs to merge

Writing polyMesh with 2 cellZones
----------------
Mesh Information
----------------
  boundingBox: (-3000 -3000 -10) (3000 3000 1870)
  nPoints: 28093
  nCells: 25344
  nFaces: 78720
  nInternalFaces: 73344
----------------
Cell Zones
----------------
  zone 0 (size: 6912) name: square
  zone 1 (size: 18432) name: innerCircle
----------------
Patches
----------------
  patch 0 (start: 73344 size: 1152) name: inletOutlet
  patch 1 (start: 74496 size: 2112) name: bottom
  patch 2 (start: 76608 size: 2112) name: top

End

