/*---------------------------------------------------------------------------*\
| =========                 |                                                 |
| \\      /  F ield         | OpenFOAM: The Open Source CFD Toolbox           |
|  \\    /   O peration     | Version:  2512                                  |
|   \\  /    A nd           | Website:  www.openfoam.com                      |
|    \\/     M anipulation  |                                                 |
\*---------------------------------------------------------------------------*/
Build  : _87ed40d256-20251219 OPENFOAM=2512 version=v2512
Arch   : "LSB;label=32;scalar=64"
Exec   : reconstructParMesh -constant
Date   : Jun 23 2026
Time   : 16:11:43
Host   : cnx044.deucalion.macc.fccn.pt
PID    : 114226
I/O    : uncollated
Case   : /projects/F202500001HPCVLABEPICURE/ofoam.019/guimaraes/cases/flowCase
nProcs : 1
trapFpe: Floating point exception trapping enabled (FOAM_SIGFPE).
memory pool : not available
fileModificationChecking : Monitoring run-time modified files using timeStampMaster (fileModificationSkew 5, maxFileModificationPolls 20)
allowSystemOperations : Allowing user-supplied system call operations

// * * * * * * * * * * * * * * * * * * * * * * * * * * * * * * * * * * * * * //
Create time

--> FOAM Warning : 
    From void* Foam::dlLibraryTable::openLibrary(const Foam::fileName&, bool)
    in file db/dynamicLibrary/dlLibraryTable/dlLibraryTable.C at line 188
    Could not load "libUseratmosphericModels.so"
libUseratmosphericModels.so: cannot open shared object file: No such file or directory
Merge individual processor meshes back into one master mesh.
Use if the original master mesh has been deleted or the processor meshes
have been modified (topology change).
This tool will write the resulting mesh to a new time step and construct
xxxxProcAddressing files in the processor meshes so reconstructPar can be
used to regenerate the fields on the master mesh.

Not well tested & use at your own risk!

Merge assuming correct, fully matched procBoundaries.

Found 96 processor directories
    Reading database "flowCase/processor0"
--> FOAM Warning : 
    From void* Foam::dlLibraryTable::openLibrary(const Foam::fileName&, bool)
    in file db/dynamicLibrary/dlLibraryTable/dlLibraryTable.C at line 188
    Could not load "libUseratmosphericModels.so"
libUseratmosphericModels.so: cannot open shared object file: No such file or directory
    Reading database "flowCase/processor1"
--> FOAM Warning : 
    From void* Foam::dlLibraryTable::openLibrary(const Foam::fileName&, bool)
    in file db/dynamicLibrary/dlLibraryTable/dlLibraryTable.C at line 188
    Could not load "libUseratmosphericModels.so"
libUseratmosphericModels.so: cannot open shared object file: No such file or directory
    Reading database "flowCase/processor2"
--> FOAM Warning : 
    From void* Foam::dlLibraryTable::openLibrary(const Foam::fileName&, bool)
    in file db/dynamicLibrary/dlLibraryTable/dlLibraryTable.C at line 188
    Could not load "libUseratmosphericModels.so"
libUseratmosphericModels.so: cannot open shared object file: No such file or directory
    Reading database "flowCase/processor3"
--> FOAM Warning : 
    From void* Foam::dlLibraryTable::openLibrary(const Foam::fileName&, bool)
    in file db/dynamicLibrary/dlLibraryTable/dlLibraryTable.C at line 188
    Could not load "libUseratmosphericModels.so"
libUseratmosphericModels.so: cannot open shared object file: No such file or directory
    Reading database "flowCase/processor4"
--> FOAM Warning : 
    From void* Foam::dlLibraryTable::openLibrary(const Foam::fileName&, bool)
    in file db/dynamicLibrary/dlLibraryTable/dlLibraryTable.C at line 188
    Could not load "libUseratmosphericModels.so"
libUseratmosphericModels.so: cannot open shared object file: No such file or directory
    Reading database "flowCase/processor5"
--> FOAM Warning : 
    From void* Foam::dlLibraryTable::openLibrary(const Foam::fileName&, bool)
    in file db/dynamicLibrary/dlLibraryTable/dlLibraryTable.C at line 188
    Could not load "libUseratmosphericModels.so"
libUseratmosphericModels.so: cannot open shared object file: No such file or directory
    Reading database "flowCase/processor6"
--> FOAM Warning : 
    From void* Foam::dlLibraryTable::openLibrary(const Foam::fileName&, bool)
    in file db/dynamicLibrary/dlLibraryTable/dlLibraryTable.C at line 188
    Could not load "libUseratmosphericModels.so"
libUseratmosphericModels.so: cannot open shared object file: No such file or directory
    Reading database "flowCase/processor7"
--> FOAM Warning : 
    From void* Foam::dlLibraryTable::openLibrary(const Foam::fileName&, bool)
    in file db/dynamicLibrary/dlLibraryTable/dlLibraryTable.C at line 188
    Could not load "libUseratmosphericModels.so"
libUseratmosphericModels.so: cannot open shared object file: No such file or directory
    Reading database "flowCase/processor8"
--> FOAM Warning : 
    From void* Foam::dlLibraryTable::openLibrary(const Foam::fileName&, bool)
    in file db/dynamicLibrary/dlLibraryTable/dlLibraryTable.C at line 188
    Could not load "libUseratmosphericModels.so"
libUseratmosphericModels.so: cannot open shared object file: No such file or directory
    Reading database "flowCase/processor9"
--> FOAM Warning : 
    From void* Foam::dlLibraryTable::openLibrary(const Foam::fileName&, bool)
    in file db/dynamicLibrary/dlLibraryTable/dlLibraryTable.C at line 188
    Could not load "libUseratmosphericModels.so"
libUseratmosphericModels.so: cannot open shared object file: No such file or directory
    Reading database "flowCase/processor10"
--> FOAM Warning : 
    From void* Foam::dlLibraryTable::openLibrary(const Foam::fileName&, bool)
    in file db/dynamicLibrary/dlLibraryTable/dlLibraryTable.C at line 188
    Could not load "libUseratmosphericModels.so"
libUseratmosphericModels.so: cannot open shared object file: No such file or directory
    Reading database "flowCase/processor11"
--> FOAM Warning : 
    From void* Foam::dlLibraryTable::openLibrary(const Foam::fileName&, bool)
    in file db/dynamicLibrary/dlLibraryTable/dlLibraryTable.C at line 188
    Could not load "libUseratmosphericModels.so"
libUseratmosphericModels.so: cannot open shared object file: No such file or directory
    Reading database "flowCase/processor12"
--> FOAM Warning : 
    From void* Foam::dlLibraryTable::openLibrary(const Foam::fileName&, bool)
    in file db/dynamicLibrary/dlLibraryTable/dlLibraryTable.C at line 188
    Could not load "libUseratmosphericModels.so"
libUseratmosphericModels.so: cannot open shared object file: No such file or directory
    Reading database "flowCase/processor13"
--> FOAM Warning : 
    From void* Foam::dlLibraryTable::openLibrary(const Foam::fileName&, bool)
    in file db/dynamicLibrary/dlLibraryTable/dlLibraryTable.C at line 188
    Could not load "libUseratmosphericModels.so"
libUseratmosphericModels.so: cannot open shared object file: No such file or directory
    Reading database "flowCase/processor14"
--> FOAM Warning : 
    From void* Foam::dlLibraryTable::openLibrary(const Foam::fileName&, bool)
    in file db/dynamicLibrary/dlLibraryTable/dlLibraryTable.C at line 188
    Could not load "libUseratmosphericModels.so"
libUseratmosphericModels.so: cannot open shared object file: No such file or directory
    Reading database "flowCase/processor15"
--> FOAM Warning : 
    From void* Foam::dlLibraryTable::openLibrary(const Foam::fileName&, bool)
    in file db/dynamicLibrary/dlLibraryTable/dlLibraryTable.C at line 188
    Could not load "libUseratmosphericModels.so"
libUseratmosphericModels.so: cannot open shared object file: No such file or directory
    Reading database "flowCase/processor16"
--> FOAM Warning : 
    From void* Foam::dlLibraryTable::openLibrary(const Foam::fileName&, bool)
    in file db/dynamicLibrary/dlLibraryTable/dlLibraryTable.C at line 188
    Could not load "libUseratmosphericModels.so"
libUseratmosphericModels.so: cannot open shared object file: No such file or directory
    Reading database "flowCase/processor17"
--> FOAM Warning : 
    From void* Foam::dlLibraryTable::openLibrary(const Foam::fileName&, bool)
    in file db/dynamicLibrary/dlLibraryTable/dlLibraryTable.C at line 188
    Could not load "libUseratmosphericModels.so"
libUseratmosphericModels.so: cannot open shared object file: No such file or directory
    Reading database "flowCase/processor18"
--> FOAM Warning : 
    From void* Foam::dlLibraryTable::openLibrary(const Foam::fileName&, bool)
    in file db/dynamicLibrary/dlLibraryTable/dlLibraryTable.C at line 188
    Could not load "libUseratmosphericModels.so"
libUseratmosphericModels.so: cannot open shared object file: No such file or directory
    Reading database "flowCase/processor19"
--> FOAM Warning : 
    From void* Foam::dlLibraryTable::openLibrary(const Foam::fileName&, bool)
    in file db/dynamicLibrary/dlLibraryTable/dlLibraryTable.C at line 188
    Could not load "libUseratmosphericModels.so"
libUseratmosphericModels.so: cannot open shared object file: No such file or directory
    Reading database "flowCase/processor20"
--> FOAM Warning : 
    From void* Foam::dlLibraryTable::openLibrary(const Foam::fileName&, bool)
    in file db/dynamicLibrary/dlLibraryTable/dlLibraryTable.C at line 188
    Could not load "libUseratmosphericModels.so"
libUseratmosphericModels.so: cannot open shared object file: No such file or directory
    Reading database "flowCase/processor21"
--> FOAM Warning : 
    From void* Foam::dlLibraryTable::openLibrary(const Foam::fileName&, bool)
    in file db/dynamicLibrary/dlLibraryTable/dlLibraryTable.C at line 188
    Could not load "libUseratmosphericModels.so"
libUseratmosphericModels.so: cannot open shared object file: No such file or directory
    Reading database "flowCase/processor22"
--> FOAM Warning : 
    From void* Foam::dlLibraryTable::openLibrary(const Foam::fileName&, bool)
    in file db/dynamicLibrary/dlLibraryTable/dlLibraryTable.C at line 188
    Could not load "libUseratmosphericModels.so"
libUseratmosphericModels.so: cannot open shared object file: No such file or directory
    Reading database "flowCase/processor23"
--> FOAM Warning : 
    From void* Foam::dlLibraryTable::openLibrary(const Foam::fileName&, bool)
    in file db/dynamicLibrary/dlLibraryTable/dlLibraryTable.C at line 188
    Could not load "libUseratmosphericModels.so"
libUseratmosphericModels.so: cannot open shared object file: No such file or directory
    Reading database "flowCase/processor24"
--> FOAM Warning : 
    From void* Foam::dlLibraryTable::openLibrary(const Foam::fileName&, bool)
    in file db/dynamicLibrary/dlLibraryTable/dlLibraryTable.C at line 188
    Could not load "libUseratmosphericModels.so"
libUseratmosphericModels.so: cannot open shared object file: No such file or directory
    Reading database "flowCase/processor25"
--> FOAM Warning : 
    From void* Foam::dlLibraryTable::openLibrary(const Foam::fileName&, bool)
    in file db/dynamicLibrary/dlLibraryTable/dlLibraryTable.C at line 188
    Could not load "libUseratmosphericModels.so"
libUseratmosphericModels.so: cannot open shared object file: No such file or directory
    Reading database "flowCase/processor26"
--> FOAM Warning : 
    From void* Foam::dlLibraryTable::openLibrary(const Foam::fileName&, bool)
    in file db/dynamicLibrary/dlLibraryTable/dlLibraryTable.C at line 188
    Could not load "libUseratmosphericModels.so"
libUseratmosphericModels.so: cannot open shared object file: No such file or directory
    Reading database "flowCase/processor27"
--> FOAM Warning : 
    From void* Foam::dlLibraryTable::openLibrary(const Foam::fileName&, bool)
    in file db/dynamicLibrary/dlLibraryTable/dlLibraryTable.C at line 188
    Could not load "libUseratmosphericModels.so"
libUseratmosphericModels.so: cannot open shared object file: No such file or directory
    Reading database "flowCase/processor28"
--> FOAM Warning : 
    From void* Foam::dlLibraryTable::openLibrary(const Foam::fileName&, bool)
    in file db/dynamicLibrary/dlLibraryTable/dlLibraryTable.C at line 188
    Could not load "libUseratmosphericModels.so"
libUseratmosphericModels.so: cannot open shared object file: No such file or directory
    Reading database "flowCase/processor29"
--> FOAM Warning : 
    From void* Foam::dlLibraryTable::openLibrary(const Foam::fileName&, bool)
    in file db/dynamicLibrary/dlLibraryTable/dlLibraryTable.C at line 188
    Could not load "libUseratmosphericModels.so"
libUseratmosphericModels.so: cannot open shared object file: No such file or directory
    Reading database "flowCase/processor30"
--> FOAM Warning : 
    From void* Foam::dlLibraryTable::openLibrary(const Foam::fileName&, bool)
    in file db/dynamicLibrary/dlLibraryTable/dlLibraryTable.C at line 188
    Could not load "libUseratmosphericModels.so"
libUseratmosphericModels.so: cannot open shared object file: No such file or directory
    Reading database "flowCase/processor31"
--> FOAM Warning : 
    From void* Foam::dlLibraryTable::openLibrary(const Foam::fileName&, bool)
    in file db/dynamicLibrary/dlLibraryTable/dlLibraryTable.C at line 188
    Could not load "libUseratmosphericModels.so"
libUseratmosphericModels.so: cannot open shared object file: No such file or directory
    Reading database "flowCase/processor32"
--> FOAM Warning : 
    From void* Foam::dlLibraryTable::openLibrary(const Foam::fileName&, bool)
    in file db/dynamicLibrary/dlLibraryTable/dlLibraryTable.C at line 188
    Could not load "libUseratmosphericModels.so"
libUseratmosphericModels.so: cannot open shared object file: No such file or directory
    Reading database "flowCase/processor33"
--> FOAM Warning : 
    From void* Foam::dlLibraryTable::openLibrary(const Foam::fileName&, bool)
    in file db/dynamicLibrary/dlLibraryTable/dlLibraryTable.C at line 188
    Could not load "libUseratmosphericModels.so"
libUseratmosphericModels.so: cannot open shared object file: No such file or directory
    Reading database "flowCase/processor34"
--> FOAM Warning : 
    From void* Foam::dlLibraryTable::openLibrary(const Foam::fileName&, bool)
    in file db/dynamicLibrary/dlLibraryTable/dlLibraryTable.C at line 188
    Could not load "libUseratmosphericModels.so"
libUseratmosphericModels.so: cannot open shared object file: No such file or directory
    Reading database "flowCase/processor35"
--> FOAM Warning : 
    From void* Foam::dlLibraryTable::openLibrary(const Foam::fileName&, bool)
    in file db/dynamicLibrary/dlLibraryTable/dlLibraryTable.C at line 188
    Could not load "libUseratmosphericModels.so"
libUseratmosphericModels.so: cannot open shared object file: No such file or directory
    Reading database "flowCase/processor36"
--> FOAM Warning : 
    From void* Foam::dlLibraryTable::openLibrary(const Foam::fileName&, bool)
    in file db/dynamicLibrary/dlLibraryTable/dlLibraryTable.C at line 188
    Could not load "libUseratmosphericModels.so"
libUseratmosphericModels.so: cannot open shared object file: No such file or directory
    Reading database "flowCase/processor37"
--> FOAM Warning : 
    From void* Foam::dlLibraryTable::openLibrary(const Foam::fileName&, bool)
    in file db/dynamicLibrary/dlLibraryTable/dlLibraryTable.C at line 188
    Could not load "libUseratmosphericModels.so"
libUseratmosphericModels.so: cannot open shared object file: No such file or directory
    Reading database "flowCase/processor38"
--> FOAM Warning : 
    From void* Foam::dlLibraryTable::openLibrary(const Foam::fileName&, bool)
    in file db/dynamicLibrary/dlLibraryTable/dlLibraryTable.C at line 188
    Could not load "libUseratmosphericModels.so"
libUseratmosphericModels.so: cannot open shared object file: No such file or directory
    Reading database "flowCase/processor39"
--> FOAM Warning : 
    From void* Foam::dlLibraryTable::openLibrary(const Foam::fileName&, bool)
    in file db/dynamicLibrary/dlLibraryTable/dlLibraryTable.C at line 188
    Could not load "libUseratmosphericModels.so"
libUseratmosphericModels.so: cannot open shared object file: No such file or directory
    Reading database "flowCase/processor40"
--> FOAM Warning : 
    From void* Foam::dlLibraryTable::openLibrary(const Foam::fileName&, bool)
    in file db/dynamicLibrary/dlLibraryTable/dlLibraryTable.C at line 188
    Could not load "libUseratmosphericModels.so"
libUseratmosphericModels.so: cannot open shared object file: No such file or directory
    Reading database "flowCase/processor41"
--> FOAM Warning : 
    From void* Foam::dlLibraryTable::openLibrary(const Foam::fileName&, bool)
    in file db/dynamicLibrary/dlLibraryTable/dlLibraryTable.C at line 188
    Could not load "libUseratmosphericModels.so"
libUseratmosphericModels.so: cannot open shared object file: No such file or directory
    Reading database "flowCase/processor42"
--> FOAM Warning : 
    From void* Foam::dlLibraryTable::openLibrary(const Foam::fileName&, bool)
    in file db/dynamicLibrary/dlLibraryTable/dlLibraryTable.C at line 188
    Could not load "libUseratmosphericModels.so"
libUseratmosphericModels.so: cannot open shared object file: No such file or directory
    Reading database "flowCase/processor43"
--> FOAM Warning : 
    From void* Foam::dlLibraryTable::openLibrary(const Foam::fileName&, bool)
    in file db/dynamicLibrary/dlLibraryTable/dlLibraryTable.C at line 188
    Could not load "libUseratmosphericModels.so"
libUseratmosphericModels.so: cannot open shared object file: No such file or directory
    Reading database "flowCase/processor44"
--> FOAM Warning : 
    From void* Foam::dlLibraryTable::openLibrary(const Foam::fileName&, bool)
    in file db/dynamicLibrary/dlLibraryTable/dlLibraryTable.C at line 188
    Could not load "libUseratmosphericModels.so"
libUseratmosphericModels.so: cannot open shared object file: No such file or directory
    Reading database "flowCase/processor45"
--> FOAM Warning : 
    From void* Foam::dlLibraryTable::openLibrary(const Foam::fileName&, bool)
    in file db/dynamicLibrary/dlLibraryTable/dlLibraryTable.C at line 188
    Could not load "libUseratmosphericModels.so"
libUseratmosphericModels.so: cannot open shared object file: No such file or directory
    Reading database "flowCase/processor46"
--> FOAM Warning : 
    From void* Foam::dlLibraryTable::openLibrary(const Foam::fileName&, bool)
    in file db/dynamicLibrary/dlLibraryTable/dlLibraryTable.C at line 188
    Could not load "libUseratmosphericModels.so"
libUseratmosphericModels.so: cannot open shared object file: No such file or directory
    Reading database "flowCase/processor47"
--> FOAM Warning : 
    From void* Foam::dlLibraryTable::openLibrary(const Foam::fileName&, bool)
    in file db/dynamicLibrary/dlLibraryTable/dlLibraryTable.C at line 188
    Could not load "libUseratmosphericModels.so"
libUseratmosphericModels.so: cannot open shared object file: No such file or directory
    Reading database "flowCase/processor48"
--> FOAM Warning : 
    From void* Foam::dlLibraryTable::openLibrary(const Foam::fileName&, bool)
    in file db/dynamicLibrary/dlLibraryTable/dlLibraryTable.C at line 188
    Could not load "libUseratmosphericModels.so"
libUseratmosphericModels.so: cannot open shared object file: No such file or directory
    Reading database "flowCase/processor49"
--> FOAM Warning : 
    From void* Foam::dlLibraryTable::openLibrary(const Foam::fileName&, bool)
    in file db/dynamicLibrary/dlLibraryTable/dlLibraryTable.C at line 188
    Could not load "libUseratmosphericModels.so"
libUseratmosphericModels.so: cannot open shared object file: No such file or directory
    Reading database "flowCase/processor50"
--> FOAM Warning : 
    From void* Foam::dlLibraryTable::openLibrary(const Foam::fileName&, bool)
    in file db/dynamicLibrary/dlLibraryTable/dlLibraryTable.C at line 188
    Could not load "libUseratmosphericModels.so"
libUseratmosphericModels.so: cannot open shared object file: No such file or directory
    Reading database "flowCase/processor51"
--> FOAM Warning : 
    From void* Foam::dlLibraryTable::openLibrary(const Foam::fileName&, bool)
    in file db/dynamicLibrary/dlLibraryTable/dlLibraryTable.C at line 188
    Could not load "libUseratmosphericModels.so"
libUseratmosphericModels.so: cannot open shared object file: No such file or directory
    Reading database "flowCase/processor52"
--> FOAM Warning : 
    From void* Foam::dlLibraryTable::openLibrary(const Foam::fileName&, bool)
    in file db/dynamicLibrary/dlLibraryTable/dlLibraryTable.C at line 188
    Could not load "libUseratmosphericModels.so"
libUseratmosphericModels.so: cannot open shared object file: No such file or directory
    Reading database "flowCase/processor53"
--> FOAM Warning : 
    From void* Foam::dlLibraryTable::openLibrary(const Foam::fileName&, bool)
    in file db/dynamicLibrary/dlLibraryTable/dlLibraryTable.C at line 188
    Could not load "libUseratmosphericModels.so"
libUseratmosphericModels.so: cannot open shared object file: No such file or directory
    Reading database "flowCase/processor54"
--> FOAM Warning : 
    From void* Foam::dlLibraryTable::openLibrary(const Foam::fileName&, bool)
    in file db/dynamicLibrary/dlLibraryTable/dlLibraryTable.C at line 188
    Could not load "libUseratmosphericModels.so"
libUseratmosphericModels.so: cannot open shared object file: No such file or directory
    Reading database "flowCase/processor55"
--> FOAM Warning : 
    From void* Foam::dlLibraryTable::openLibrary(const Foam::fileName&, bool)
    in file db/dynamicLibrary/dlLibraryTable/dlLibraryTable.C at line 188
    Could not load "libUseratmosphericModels.so"
libUseratmosphericModels.so: cannot open shared object file: No such file or directory
    Reading database "flowCase/processor56"
--> FOAM Warning : 
    From void* Foam::dlLibraryTable::openLibrary(const Foam::fileName&, bool)
    in file db/dynamicLibrary/dlLibraryTable/dlLibraryTable.C at line 188
    Could not load "libUseratmosphericModels.so"
libUseratmosphericModels.so: cannot open shared object file: No such file or directory
    Reading database "flowCase/processor57"
--> FOAM Warning : 
    From void* Foam::dlLibraryTable::openLibrary(const Foam::fileName&, bool)
    in file db/dynamicLibrary/dlLibraryTable/dlLibraryTable.C at line 188
    Could not load "libUseratmosphericModels.so"
libUseratmosphericModels.so: cannot open shared object file: No such file or directory
    Reading database "flowCase/processor58"
--> FOAM Warning : 
    From void* Foam::dlLibraryTable::openLibrary(const Foam::fileName&, bool)
    in file db/dynamicLibrary/dlLibraryTable/dlLibraryTable.C at line 188
    Could not load "libUseratmosphericModels.so"
libUseratmosphericModels.so: cannot open shared object file: No such file or directory
    Reading database "flowCase/processor59"
--> FOAM Warning : 
    From void* Foam::dlLibraryTable::openLibrary(const Foam::fileName&, bool)
    in file db/dynamicLibrary/dlLibraryTable/dlLibraryTable.C at line 188
    Could not load "libUseratmosphericModels.so"
libUseratmosphericModels.so: cannot open shared object file: No such file or directory
    Reading database "flowCase/processor60"
--> FOAM Warning : 
    From void* Foam::dlLibraryTable::openLibrary(const Foam::fileName&, bool)
    in file db/dynamicLibrary/dlLibraryTable/dlLibraryTable.C at line 188
    Could not load "libUseratmosphericModels.so"
libUseratmosphericModels.so: cannot open shared object file: No such file or directory
    Reading database "flowCase/processor61"
--> FOAM Warning : 
    From void* Foam::dlLibraryTable::openLibrary(const Foam::fileName&, bool)
    in file db/dynamicLibrary/dlLibraryTable/dlLibraryTable.C at line 188
    Could not load "libUseratmosphericModels.so"
libUseratmosphericModels.so: cannot open shared object file: No such file or directory
    Reading database "flowCase/processor62"
--> FOAM Warning : 
    From void* Foam::dlLibraryTable::openLibrary(const Foam::fileName&, bool)
    in file db/dynamicLibrary/dlLibraryTable/dlLibraryTable.C at line 188
    Could not load "libUseratmosphericModels.so"
libUseratmosphericModels.so: cannot open shared object file: No such file or directory
    Reading database "flowCase/processor63"
--> FOAM Warning : 
    From void* Foam::dlLibraryTable::openLibrary(const Foam::fileName&, bool)
    in file db/dynamicLibrary/dlLibraryTable/dlLibraryTable.C at line 188
    Could not load "libUseratmosphericModels.so"
libUseratmosphericModels.so: cannot open shared object file: No such file or directory
    Reading database "flowCase/processor64"
--> FOAM Warning : 
    From void* Foam::dlLibraryTable::openLibrary(const Foam::fileName&, bool)
    in file db/dynamicLibrary/dlLibraryTable/dlLibraryTable.C at line 188
    Could not load "libUseratmosphericModels.so"
libUseratmosphericModels.so: cannot open shared object file: No such file or directory
    Reading database "flowCase/processor65"
--> FOAM Warning : 
    From void* Foam::dlLibraryTable::openLibrary(const Foam::fileName&, bool)
    in file db/dynamicLibrary/dlLibraryTable/dlLibraryTable.C at line 188
    Could not load "libUseratmosphericModels.so"
libUseratmosphericModels.so: cannot open shared object file: No such file or directory
    Reading database "flowCase/processor66"
--> FOAM Warning : 
    From void* Foam::dlLibraryTable::openLibrary(const Foam::fileName&, bool)
    in file db/dynamicLibrary/dlLibraryTable/dlLibraryTable.C at line 188
    Could not load "libUseratmosphericModels.so"
libUseratmosphericModels.so: cannot open shared object file: No such file or directory
    Reading database "flowCase/processor67"
--> FOAM Warning : 
    From void* Foam::dlLibraryTable::openLibrary(const Foam::fileName&, bool)
    in file db/dynamicLibrary/dlLibraryTable/dlLibraryTable.C at line 188
    Could not load "libUseratmosphericModels.so"
libUseratmosphericModels.so: cannot open shared object file: No such file or directory
    Reading database "flowCase/processor68"
--> FOAM Warning : 
    From void* Foam::dlLibraryTable::openLibrary(const Foam::fileName&, bool)
    in file db/dynamicLibrary/dlLibraryTable/dlLibraryTable.C at line 188
    Could not load "libUseratmosphericModels.so"
libUseratmosphericModels.so: cannot open shared object file: No such file or directory
    Reading database "flowCase/processor69"
--> FOAM Warning : 
    From void* Foam::dlLibraryTable::openLibrary(const Foam::fileName&, bool)
    in file db/dynamicLibrary/dlLibraryTable/dlLibraryTable.C at line 188
    Could not load "libUseratmosphericModels.so"
libUseratmosphericModels.so: cannot open shared object file: No such file or directory
    Reading database "flowCase/processor70"
--> FOAM Warning : 
    From void* Foam::dlLibraryTable::openLibrary(const Foam::fileName&, bool)
    in file db/dynamicLibrary/dlLibraryTable/dlLibraryTable.C at line 188
    Could not load "libUseratmosphericModels.so"
libUseratmosphericModels.so: cannot open shared object file: No such file or directory
    Reading database "flowCase/processor71"
--> FOAM Warning : 
    From void* Foam::dlLibraryTable::openLibrary(const Foam::fileName&, bool)
    in file db/dynamicLibrary/dlLibraryTable/dlLibraryTable.C at line 188
    Could not load "libUseratmosphericModels.so"
libUseratmosphericModels.so: cannot open shared object file: No such file or directory
    Reading database "flowCase/processor72"
--> FOAM Warning : 
    From void* Foam::dlLibraryTable::openLibrary(const Foam::fileName&, bool)
    in file db/dynamicLibrary/dlLibraryTable/dlLibraryTable.C at line 188
    Could not load "libUseratmosphericModels.so"
libUseratmosphericModels.so: cannot open shared object file: No such file or directory
    Reading database "flowCase/processor73"
--> FOAM Warning : 
    From void* Foam::dlLibraryTable::openLibrary(const Foam::fileName&, bool)
    in file db/dynamicLibrary/dlLibraryTable/dlLibraryTable.C at line 188
    Could not load "libUseratmosphericModels.so"
libUseratmosphericModels.so: cannot open shared object file: No such file or directory
    Reading database "flowCase/processor74"
--> FOAM Warning : 
    From void* Foam::dlLibraryTable::openLibrary(const Foam::fileName&, bool)
    in file db/dynamicLibrary/dlLibraryTable/dlLibraryTable.C at line 188
    Could not load "libUseratmosphericModels.so"
libUseratmosphericModels.so: cannot open shared object file: No such file or directory
    Reading database "flowCase/processor75"
--> FOAM Warning : 
    From void* Foam::dlLibraryTable::openLibrary(const Foam::fileName&, bool)
    in file db/dynamicLibrary/dlLibraryTable/dlLibraryTable.C at line 188
    Could not load "libUseratmosphericModels.so"
libUseratmosphericModels.so: cannot open shared object file: No such file or directory
    Reading database "flowCase/processor76"
--> FOAM Warning : 
    From void* Foam::dlLibraryTable::openLibrary(const Foam::fileName&, bool)
    in file db/dynamicLibrary/dlLibraryTable/dlLibraryTable.C at line 188
    Could not load "libUseratmosphericModels.so"
libUseratmosphericModels.so: cannot open shared object file: No such file or directory
    Reading database "flowCase/processor77"
--> FOAM Warning : 
    From void* Foam::dlLibraryTable::openLibrary(const Foam::fileName&, bool)
    in file db/dynamicLibrary/dlLibraryTable/dlLibraryTable.C at line 188
    Could not load "libUseratmosphericModels.so"
libUseratmosphericModels.so: cannot open shared object file: No such file or directory
    Reading database "flowCase/processor78"
--> FOAM Warning : 
    From void* Foam::dlLibraryTable::openLibrary(const Foam::fileName&, bool)
    in file db/dynamicLibrary/dlLibraryTable/dlLibraryTable.C at line 188
    Could not load "libUseratmosphericModels.so"
libUseratmosphericModels.so: cannot open shared object file: No such file or directory
    Reading database "flowCase/processor79"
--> FOAM Warning : 
    From void* Foam::dlLibraryTable::openLibrary(const Foam::fileName&, bool)
    in file db/dynamicLibrary/dlLibraryTable/dlLibraryTable.C at line 188
    Could not load "libUseratmosphericModels.so"
libUseratmosphericModels.so: cannot open shared object file: No such file or directory
    Reading database "flowCase/processor80"
--> FOAM Warning : 
    From void* Foam::dlLibraryTable::openLibrary(const Foam::fileName&, bool)
    in file db/dynamicLibrary/dlLibraryTable/dlLibraryTable.C at line 188
    Could not load "libUseratmosphericModels.so"
libUseratmosphericModels.so: cannot open shared object file: No such file or directory
    Reading database "flowCase/processor81"
--> FOAM Warning : 
    From void* Foam::dlLibraryTable::openLibrary(const Foam::fileName&, bool)
    in file db/dynamicLibrary/dlLibraryTable/dlLibraryTable.C at line 188
    Could not load "libUseratmosphericModels.so"
libUseratmosphericModels.so: cannot open shared object file: No such file or directory
    Reading database "flowCase/processor82"
--> FOAM Warning : 
    From void* Foam::dlLibraryTable::openLibrary(const Foam::fileName&, bool)
    in file db/dynamicLibrary/dlLibraryTable/dlLibraryTable.C at line 188
    Could not load "libUseratmosphericModels.so"
libUseratmosphericModels.so: cannot open shared object file: No such file or directory
    Reading database "flowCase/processor83"
--> FOAM Warning : 
    From void* Foam::dlLibraryTable::openLibrary(const Foam::fileName&, bool)
    in file db/dynamicLibrary/dlLibraryTable/dlLibraryTable.C at line 188
    Could not load "libUseratmosphericModels.so"
libUseratmosphericModels.so: cannot open shared object file: No such file or directory
    Reading database "flowCase/processor84"
--> FOAM Warning : 
    From void* Foam::dlLibraryTable::openLibrary(const Foam::fileName&, bool)
    in file db/dynamicLibrary/dlLibraryTable/dlLibraryTable.C at line 188
    Could not load "libUseratmosphericModels.so"
libUseratmosphericModels.so: cannot open shared object file: No such file or directory
    Reading database "flowCase/processor85"
--> FOAM Warning : 
    From void* Foam::dlLibraryTable::openLibrary(const Foam::fileName&, bool)
    in file db/dynamicLibrary/dlLibraryTable/dlLibraryTable.C at line 188
    Could not load "libUseratmosphericModels.so"
libUseratmosphericModels.so: cannot open shared object file: No such file or directory
    Reading database "flowCase/processor86"
--> FOAM Warning : 
    From void* Foam::dlLibraryTable::openLibrary(const Foam::fileName&, bool)
    in file db/dynamicLibrary/dlLibraryTable/dlLibraryTable.C at line 188
    Could not load "libUseratmosphericModels.so"
libUseratmosphericModels.so: cannot open shared object file: No such file or directory
    Reading database "flowCase/processor87"
--> FOAM Warning : 
    From void* Foam::dlLibraryTable::openLibrary(const Foam::fileName&, bool)
    in file db/dynamicLibrary/dlLibraryTable/dlLibraryTable.C at line 188
    Could not load "libUseratmosphericModels.so"
libUseratmosphericModels.so: cannot open shared object file: No such file or directory
    Reading database "flowCase/processor88"
--> FOAM Warning : 
    From void* Foam::dlLibraryTable::openLibrary(const Foam::fileName&, bool)
    in file db/dynamicLibrary/dlLibraryTable/dlLibraryTable.C at line 188
    Could not load "libUseratmosphericModels.so"
libUseratmosphericModels.so: cannot open shared object file: No such file or directory
    Reading database "flowCase/processor89"
--> FOAM Warning : 
    From void* Foam::dlLibraryTable::openLibrary(const Foam::fileName&, bool)
    in file db/dynamicLibrary/dlLibraryTable/dlLibraryTable.C at line 188
    Could not load "libUseratmosphericModels.so"
libUseratmosphericModels.so: cannot open shared object file: No such file or directory
    Reading database "flowCase/processor90"
--> FOAM Warning : 
    From void* Foam::dlLibraryTable::openLibrary(const Foam::fileName&, bool)
    in file db/dynamicLibrary/dlLibraryTable/dlLibraryTable.C at line 188
    Could not load "libUseratmosphericModels.so"
libUseratmosphericModels.so: cannot open shared object file: No such file or directory
    Reading database "flowCase/processor91"
--> FOAM Warning : 
    From void* Foam::dlLibraryTable::openLibrary(const Foam::fileName&, bool)
    in file db/dynamicLibrary/dlLibraryTable/dlLibraryTable.C at line 188
    Could not load "libUseratmosphericModels.so"
libUseratmosphericModels.so: cannot open shared object file: No such file or directory
    Reading database "flowCase/processor92"
--> FOAM Warning : 
    From void* Foam::dlLibraryTable::openLibrary(const Foam::fileName&, bool)
    in file db/dynamicLibrary/dlLibraryTable/dlLibraryTable.C at line 188
    Could not load "libUseratmosphericModels.so"
libUseratmosphericModels.so: cannot open shared object file: No such file or directory
    Reading database "flowCase/processor93"
--> FOAM Warning : 
    From void* Foam::dlLibraryTable::openLibrary(const Foam::fileName&, bool)
    in file db/dynamicLibrary/dlLibraryTable/dlLibraryTable.C at line 188
    Could not load "libUseratmosphericModels.so"
libUseratmosphericModels.so: cannot open shared object file: No such file or directory
    Reading database "flowCase/processor94"
--> FOAM Warning : 
    From void* Foam::dlLibraryTable::openLibrary(const Foam::fileName&, bool)
    in file db/dynamicLibrary/dlLibraryTable/dlLibraryTable.C at line 188
    Could not load "libUseratmosphericModels.so"
libUseratmosphericModels.so: cannot open shared object file: No such file or directory
    Reading database "flowCase/processor95"
--> FOAM Warning : 
    From void* Foam::dlLibraryTable::openLibrary(const Foam::fileName&, bool)
    in file db/dynamicLibrary/dlLibraryTable/dlLibraryTable.C at line 188
    Could not load "libUseratmosphericModels.so"
libUseratmosphericModels.so: cannot open shared object file: No such file or directory

Time = constant


Writing merged mesh to "constant/polyMesh"

Reconstructing addressing from processor meshes to the newly reconstructed mesh

Processor 0
Read processor mesh: "flowCase/processor0"
Writing addressing : "flowCase/processor0/constant/polyMesh"
    pointProcAddressing
    faceProcAddressing
    cellProcAddressing
    boundaryProcAddressing

Processor 1
Read processor mesh: "flowCase/processor1"
Writing addressing : "flowCase/processor1/constant/polyMesh"
    pointProcAddressing
    faceProcAddressing
    cellProcAddressing
    boundaryProcAddressing

Processor 2
Read processor mesh: "flowCase/processor2"
Writing addressing : "flowCase/processor2/constant/polyMesh"
    pointProcAddressing
    faceProcAddressing
    cellProcAddressing
    boundaryProcAddressing

Processor 3
Read processor mesh: "flowCase/processor3"
Writing addressing : "flowCase/processor3/constant/polyMesh"
    pointProcAddressing
    faceProcAddressing
    cellProcAddressing
    boundaryProcAddressing

Processor 4
Read processor mesh: "flowCase/processor4"
Writing addressing : "flowCase/processor4/constant/polyMesh"
    pointProcAddressing
    faceProcAddressing
    cellProcAddressing
    boundaryProcAddressing

Processor 5
Read processor mesh: "flowCase/processor5"
Writing addressing : "flowCase/processor5/constant/polyMesh"
    pointProcAddressing
    faceProcAddressing
    cellProcAddressing
    boundaryProcAddressing

Processor 6
Read processor mesh: "flowCase/processor6"
Writing addressing : "flowCase/processor6/constant/polyMesh"
    pointProcAddressing
    faceProcAddressing
    cellProcAddressing
    boundaryProcAddressing

Processor 7
Read processor mesh: "flowCase/processor7"
Writing addressing : "flowCase/processor7/constant/polyMesh"
    pointProcAddressing
    faceProcAddressing
    cellProcAddressing
    boundaryProcAddressing

Processor 8
Read processor mesh: "flowCase/processor8"
Writing addressing : "flowCase/processor8/constant/polyMesh"
    pointProcAddressing
    faceProcAddressing
    cellProcAddressing
    boundaryProcAddressing

Processor 9
Read processor mesh: "flowCase/processor9"
Writing addressing : "flowCase/processor9/constant/polyMesh"
    pointProcAddressing
    faceProcAddressing
    cellProcAddressing
    boundaryProcAddressing

Processor 10
Read processor mesh: "flowCase/processor10"
Writing addressing : "flowCase/processor10/constant/polyMesh"
    pointProcAddressing
    faceProcAddressing
    cellProcAddressing
    boundaryProcAddressing

Processor 11
Read processor mesh: "flowCase/processor11"
Writing addressing : "flowCase/processor11/constant/polyMesh"
    pointProcAddressing
    faceProcAddressing
    cellProcAddressing
    boundaryProcAddressing

Processor 12
Read processor mesh: "flowCase/processor12"
Writing addressing : "flowCase/processor12/constant/polyMesh"
    pointProcAddressing
    faceProcAddressing
    cellProcAddressing
    boundaryProcAddressing

Processor 13
Read processor mesh: "flowCase/processor13"
Writing addressing : "flowCase/processor13/constant/polyMesh"
    pointProcAddressing
    faceProcAddressing
    cellProcAddressing
    boundaryProcAddressing

Processor 14
Read processor mesh: "flowCase/processor14"
Writing addressing : "flowCase/processor14/constant/polyMesh"
    pointProcAddressing
    faceProcAddressing
    cellProcAddressing
    boundaryProcAddressing

Processor 15
Read processor mesh: "flowCase/processor15"
Writing addressing : "flowCase/processor15/constant/polyMesh"
    pointProcAddressing
    faceProcAddressing
    cellProcAddressing
    boundaryProcAddressing

Processor 16
Read processor mesh: "flowCase/processor16"
Writing addressing : "flowCase/processor16/constant/polyMesh"
    pointProcAddressing
    faceProcAddressing
    cellProcAddressing
    boundaryProcAddressing

Processor 17
Read processor mesh: "flowCase/processor17"
Writing addressing : "flowCase/processor17/constant/polyMesh"
    pointProcAddressing
    faceProcAddressing
    cellProcAddressing
    boundaryProcAddressing

Processor 18
Read processor mesh: "flowCase/processor18"
Writing addressing : "flowCase/processor18/constant/polyMesh"
    pointProcAddressing
    faceProcAddressing
    cellProcAddressing
    boundaryProcAddressing

Processor 19
Read processor mesh: "flowCase/processor19"
Writing addressing : "flowCase/processor19/constant/polyMesh"
    pointProcAddressing
    faceProcAddressing
    cellProcAddressing
    boundaryProcAddressing

Processor 20
Read processor mesh: "flowCase/processor20"
Writing addressing : "flowCase/processor20/constant/polyMesh"
    pointProcAddressing
    faceProcAddressing
    cellProcAddressing
    boundaryProcAddressing

Processor 21
Read processor mesh: "flowCase/processor21"
Writing addressing : "flowCase/processor21/constant/polyMesh"
    pointProcAddressing
    faceProcAddressing
    cellProcAddressing
    boundaryProcAddressing

Processor 22
Read processor mesh: "flowCase/processor22"
Writing addressing : "flowCase/processor22/constant/polyMesh"
    pointProcAddressing
    faceProcAddressing
    cellProcAddressing
    boundaryProcAddressing

Processor 23
Read processor mesh: "flowCase/processor23"
Writing addressing : "flowCase/processor23/constant/polyMesh"
    pointProcAddressing
    faceProcAddressing
    cellProcAddressing
    boundaryProcAddressing

Processor 24
Read processor mesh: "flowCase/processor24"
Writing addressing : "flowCase/processor24/constant/polyMesh"
    pointProcAddressing
    faceProcAddressing
    cellProcAddressing
    boundaryProcAddressing

Processor 25
Read processor mesh: "flowCase/processor25"
Writing addressing : "flowCase/processor25/constant/polyMesh"
    pointProcAddressing
    faceProcAddressing
    cellProcAddressing
    boundaryProcAddressing

Processor 26
Read processor mesh: "flowCase/processor26"
Writing addressing : "flowCase/processor26/constant/polyMesh"
    pointProcAddressing
    faceProcAddressing
    cellProcAddressing
    boundaryProcAddressing

Processor 27
Read processor mesh: "flowCase/processor27"
Writing addressing : "flowCase/processor27/constant/polyMesh"
    pointProcAddressing
    faceProcAddressing
    cellProcAddressing
    boundaryProcAddressing

Processor 28
Read processor mesh: "flowCase/processor28"
Writing addressing : "flowCase/processor28/constant/polyMesh"
    pointProcAddressing
    faceProcAddressing
    cellProcAddressing
    boundaryProcAddressing

Processor 29
Read processor mesh: "flowCase/processor29"
Writing addressing : "flowCase/processor29/constant/polyMesh"
    pointProcAddressing
    faceProcAddressing
    cellProcAddressing
    boundaryProcAddressing

Processor 30
Read processor mesh: "flowCase/processor30"
Writing addressing : "flowCase/processor30/constant/polyMesh"
    pointProcAddressing
    faceProcAddressing
    cellProcAddressing
    boundaryProcAddressing

Processor 31
Read processor mesh: "flowCase/processor31"
Writing addressing : "flowCase/processor31/constant/polyMesh"
    pointProcAddressing
    faceProcAddressing
    cellProcAddressing
    boundaryProcAddressing

Processor 32
Read processor mesh: "flowCase/processor32"
Writing addressing : "flowCase/processor32/constant/polyMesh"
    pointProcAddressing
    faceProcAddressing
    cellProcAddressing
    boundaryProcAddressing

Processor 33
Read processor mesh: "flowCase/processor33"
Writing addressing : "flowCase/processor33/constant/polyMesh"
    pointProcAddressing
    faceProcAddressing
    cellProcAddressing
    boundaryProcAddressing

Processor 34
Read processor mesh: "flowCase/processor34"
Writing addressing : "flowCase/processor34/constant/polyMesh"
    pointProcAddressing
    faceProcAddressing
    cellProcAddressing
    boundaryProcAddressing

Processor 35
Read processor mesh: "flowCase/processor35"
Writing addressing : "flowCase/processor35/constant/polyMesh"
    pointProcAddressing
    faceProcAddressing
    cellProcAddressing
    boundaryProcAddressing

Processor 36
Read processor mesh: "flowCase/processor36"
Writing addressing : "flowCase/processor36/constant/polyMesh"
    pointProcAddressing
    faceProcAddressing
    cellProcAddressing
    boundaryProcAddressing

Processor 37
Read processor mesh: "flowCase/processor37"
Writing addressing : "flowCase/processor37/constant/polyMesh"
    pointProcAddressing
    faceProcAddressing
    cellProcAddressing
    boundaryProcAddressing

Processor 38
Read processor mesh: "flowCase/processor38"
Writing addressing : "flowCase/processor38/constant/polyMesh"
    pointProcAddressing
    faceProcAddressing
    cellProcAddressing
    boundaryProcAddressing

Processor 39
Read processor mesh: "flowCase/processor39"
Writing addressing : "flowCase/processor39/constant/polyMesh"
    pointProcAddressing
    faceProcAddressing
    cellProcAddressing
    boundaryProcAddressing

Processor 40
Read processor mesh: "flowCase/processor40"
Writing addressing : "flowCase/processor40/constant/polyMesh"
    pointProcAddressing
    faceProcAddressing
    cellProcAddressing
    boundaryProcAddressing

Processor 41
Read processor mesh: "flowCase/processor41"
Writing addressing : "flowCase/processor41/constant/polyMesh"
    pointProcAddressing
    faceProcAddressing
    cellProcAddressing
    boundaryProcAddressing

Processor 42
Read processor mesh: "flowCase/processor42"
Writing addressing : "flowCase/processor42/constant/polyMesh"
    pointProcAddressing
    faceProcAddressing
    cellProcAddressing
    boundaryProcAddressing

Processor 43
Read processor mesh: "flowCase/processor43"
Writing addressing : "flowCase/processor43/constant/polyMesh"
    pointProcAddressing
    faceProcAddressing
    cellProcAddressing
    boundaryProcAddressing

Processor 44
Read processor mesh: "flowCase/processor44"
Writing addressing : "flowCase/processor44/constant/polyMesh"
    pointProcAddressing
    faceProcAddressing
    cellProcAddressing
    boundaryProcAddressing

Processor 45
Read processor mesh: "flowCase/processor45"
Writing addressing : "flowCase/processor45/constant/polyMesh"
    pointProcAddressing
    faceProcAddressing
    cellProcAddressing
    boundaryProcAddressing

Processor 46
Read processor mesh: "flowCase/processor46"
Writing addressing : "flowCase/processor46/constant/polyMesh"
    pointProcAddressing
    faceProcAddressing
    cellProcAddressing
    boundaryProcAddressing

Processor 47
Read processor mesh: "flowCase/processor47"
Writing addressing : "flowCase/processor47/constant/polyMesh"
    pointProcAddressing
    faceProcAddressing
    cellProcAddressing
    boundaryProcAddressing

Processor 48
Read processor mesh: "flowCase/processor48"
Writing addressing : "flowCase/processor48/constant/polyMesh"
    pointProcAddressing
    faceProcAddressing
    cellProcAddressing
    boundaryProcAddressing

Processor 49
Read processor mesh: "flowCase/processor49"
Writing addressing : "flowCase/processor49/constant/polyMesh"
    pointProcAddressing
    faceProcAddressing
    cellProcAddressing
    boundaryProcAddressing

Processor 50
Read processor mesh: "flowCase/processor50"
Writing addressing : "flowCase/processor50/constant/polyMesh"
    pointProcAddressing
    faceProcAddressing
    cellProcAddressing
    boundaryProcAddressing

Processor 51
Read processor mesh: "flowCase/processor51"
Writing addressing : "flowCase/processor51/constant/polyMesh"
    pointProcAddressing
    faceProcAddressing
    cellProcAddressing
    boundaryProcAddressing

Processor 52
Read processor mesh: "flowCase/processor52"
Writing addressing : "flowCase/processor52/constant/polyMesh"
    pointProcAddressing
    faceProcAddressing
    cellProcAddressing
    boundaryProcAddressing

Processor 53
Read processor mesh: "flowCase/processor53"
Writing addressing : "flowCase/processor53/constant/polyMesh"
    pointProcAddressing
    faceProcAddressing
    cellProcAddressing
    boundaryProcAddressing

Processor 54
Read processor mesh: "flowCase/processor54"
Writing addressing : "flowCase/processor54/constant/polyMesh"
    pointProcAddressing
    faceProcAddressing
    cellProcAddressing
    boundaryProcAddressing

Processor 55
Read processor mesh: "flowCase/processor55"
Writing addressing : "flowCase/processor55/constant/polyMesh"
    pointProcAddressing
    faceProcAddressing
    cellProcAddressing
    boundaryProcAddressing

Processor 56
Read processor mesh: "flowCase/processor56"
Writing addressing : "flowCase/processor56/constant/polyMesh"
    pointProcAddressing
    faceProcAddressing
    cellProcAddressing
    boundaryProcAddressing

Processor 57
Read processor mesh: "flowCase/processor57"
Writing addressing : "flowCase/processor57/constant/polyMesh"
    pointProcAddressing
    faceProcAddressing
    cellProcAddressing
    boundaryProcAddressing

Processor 58
Read processor mesh: "flowCase/processor58"
Writing addressing : "flowCase/processor58/constant/polyMesh"
    pointProcAddressing
    faceProcAddressing
    cellProcAddressing
    boundaryProcAddressing

Processor 59
Read processor mesh: "flowCase/processor59"
Writing addressing : "flowCase/processor59/constant/polyMesh"
    pointProcAddressing
    faceProcAddressing
    cellProcAddressing
    boundaryProcAddressing

Processor 60
Read processor mesh: "flowCase/processor60"
Writing addressing : "flowCase/processor60/constant/polyMesh"
    pointProcAddressing
    faceProcAddressing
    cellProcAddressing
    boundaryProcAddressing

Processor 61
Read processor mesh: "flowCase/processor61"
Writing addressing : "flowCase/processor61/constant/polyMesh"
    pointProcAddressing
    faceProcAddressing
    cellProcAddressing
    boundaryProcAddressing

Processor 62
Read processor mesh: "flowCase/processor62"
Writing addressing : "flowCase/processor62/constant/polyMesh"
    pointProcAddressing
    faceProcAddressing
    cellProcAddressing
    boundaryProcAddressing

Processor 63
Read processor mesh: "flowCase/processor63"
Writing addressing : "flowCase/processor63/constant/polyMesh"
    pointProcAddressing
    faceProcAddressing
    cellProcAddressing
    boundaryProcAddressing

Processor 64
Read processor mesh: "flowCase/processor64"
Writing addressing : "flowCase/processor64/constant/polyMesh"
    pointProcAddressing
    faceProcAddressing
    cellProcAddressing
    boundaryProcAddressing

Processor 65
Read processor mesh: "flowCase/processor65"
Writing addressing : "flowCase/processor65/constant/polyMesh"
    pointProcAddressing
    faceProcAddressing
    cellProcAddressing
    boundaryProcAddressing

Processor 66
Read processor mesh: "flowCase/processor66"
Writing addressing : "flowCase/processor66/constant/polyMesh"
    pointProcAddressing
    faceProcAddressing
    cellProcAddressing
    boundaryProcAddressing

Processor 67
Read processor mesh: "flowCase/processor67"
Writing addressing : "flowCase/processor67/constant/polyMesh"
    pointProcAddressing
    faceProcAddressing
    cellProcAddressing
    boundaryProcAddressing

Processor 68
Read processor mesh: "flowCase/processor68"
Writing addressing : "flowCase/processor68/constant/polyMesh"
    pointProcAddressing
    faceProcAddressing
    cellProcAddressing
    boundaryProcAddressing

Processor 69
Read processor mesh: "flowCase/processor69"
Writing addressing : "flowCase/processor69/constant/polyMesh"
    pointProcAddressing
    faceProcAddressing
    cellProcAddressing
    boundaryProcAddressing

Processor 70
Read processor mesh: "flowCase/processor70"
Writing addressing : "flowCase/processor70/constant/polyMesh"
    pointProcAddressing
    faceProcAddressing
    cellProcAddressing
    boundaryProcAddressing

Processor 71
Read processor mesh: "flowCase/processor71"
Writing addressing : "flowCase/processor71/constant/polyMesh"
    pointProcAddressing
    faceProcAddressing
    cellProcAddressing
    boundaryProcAddressing

Processor 72
Read processor mesh: "flowCase/processor72"
Writing addressing : "flowCase/processor72/constant/polyMesh"
    pointProcAddressing
    faceProcAddressing
    cellProcAddressing
    boundaryProcAddressing

Processor 73
Read processor mesh: "flowCase/processor73"
Writing addressing : "flowCase/processor73/constant/polyMesh"
    pointProcAddressing
    faceProcAddressing
    cellProcAddressing
    boundaryProcAddressing

Processor 74
Read processor mesh: "flowCase/processor74"
Writing addressing : "flowCase/processor74/constant/polyMesh"
    pointProcAddressing
    faceProcAddressing
    cellProcAddressing
    boundaryProcAddressing

Processor 75
Read processor mesh: "flowCase/processor75"
Writing addressing : "flowCase/processor75/constant/polyMesh"
    pointProcAddressing
    faceProcAddressing
    cellProcAddressing
    boundaryProcAddressing

Processor 76
Read processor mesh: "flowCase/processor76"
Writing addressing : "flowCase/processor76/constant/polyMesh"
    pointProcAddressing
    faceProcAddressing
    cellProcAddressing
    boundaryProcAddressing

Processor 77
Read processor mesh: "flowCase/processor77"
Writing addressing : "flowCase/processor77/constant/polyMesh"
    pointProcAddressing
    faceProcAddressing
    cellProcAddressing
    boundaryProcAddressing

Processor 78
Read processor mesh: "flowCase/processor78"
Writing addressing : "flowCase/processor78/constant/polyMesh"
    pointProcAddressing
    faceProcAddressing
    cellProcAddressing
    boundaryProcAddressing

Processor 79
Read processor mesh: "flowCase/processor79"
Writing addressing : "flowCase/processor79/constant/polyMesh"
    pointProcAddressing
    faceProcAddressing
    cellProcAddressing
    boundaryProcAddressing

Processor 80
Read processor mesh: "flowCase/processor80"
Writing addressing : "flowCase/processor80/constant/polyMesh"
    pointProcAddressing
    faceProcAddressing
    cellProcAddressing
    boundaryProcAddressing

Processor 81
Read processor mesh: "flowCase/processor81"
Writing addressing : "flowCase/processor81/constant/polyMesh"
    pointProcAddressing
    faceProcAddressing
    cellProcAddressing
    boundaryProcAddressing

Processor 82
Read processor mesh: "flowCase/processor82"
Writing addressing : "flowCase/processor82/constant/polyMesh"
    pointProcAddressing
    faceProcAddressing
    cellProcAddressing
    boundaryProcAddressing

Processor 83
Read processor mesh: "flowCase/processor83"
Writing addressing : "flowCase/processor83/constant/polyMesh"
    pointProcAddressing
    faceProcAddressing
    cellProcAddressing
    boundaryProcAddressing

Processor 84
Read processor mesh: "flowCase/processor84"
Writing addressing : "flowCase/processor84/constant/polyMesh"
    pointProcAddressing
    faceProcAddressing
    cellProcAddressing
    boundaryProcAddressing

Processor 85
Read processor mesh: "flowCase/processor85"
Writing addressing : "flowCase/processor85/constant/polyMesh"
    pointProcAddressing
    faceProcAddressing
    cellProcAddressing
    boundaryProcAddressing

Processor 86
Read processor mesh: "flowCase/processor86"
Writing addressing : "flowCase/processor86/constant/polyMesh"
    pointProcAddressing
    faceProcAddressing
    cellProcAddressing
    boundaryProcAddressing

Processor 87
Read processor mesh: "flowCase/processor87"
Writing addressing : "flowCase/processor87/constant/polyMesh"
    pointProcAddressing
    faceProcAddressing
    cellProcAddressing
    boundaryProcAddressing

Processor 88
Read processor mesh: "flowCase/processor88"
Writing addressing : "flowCase/processor88/constant/polyMesh"
    pointProcAddressing
    faceProcAddressing
    cellProcAddressing
    boundaryProcAddressing

Processor 89
Read processor mesh: "flowCase/processor89"
Writing addressing : "flowCase/processor89/constant/polyMesh"
    pointProcAddressing
    faceProcAddressing
    cellProcAddressing
    boundaryProcAddressing

Processor 90
Read processor mesh: "flowCase/processor90"
Writing addressing : "flowCase/processor90/constant/polyMesh"
    pointProcAddressing
    faceProcAddressing
    cellProcAddressing
    boundaryProcAddressing

Processor 91
Read processor mesh: "flowCase/processor91"
Writing addressing : "flowCase/processor91/constant/polyMesh"
    pointProcAddressing
    faceProcAddressing
    cellProcAddressing
    boundaryProcAddressing

Processor 92
Read processor mesh: "flowCase/processor92"
Writing addressing : "flowCase/processor92/constant/polyMesh"
    pointProcAddressing
    faceProcAddressing
    cellProcAddressing
    boundaryProcAddressing

Processor 93
Read processor mesh: "flowCase/processor93"
Writing addressing : "flowCase/processor93/constant/polyMesh"
    pointProcAddressing
    faceProcAddressing
    cellProcAddressing
    boundaryProcAddressing

Processor 94
Read processor mesh: "flowCase/processor94"
Writing addressing : "flowCase/processor94/constant/polyMesh"
    pointProcAddressing
    faceProcAddressing
    cellProcAddressing
    boundaryProcAddressing

Processor 95
Read processor mesh: "flowCase/processor95"
Writing addressing : "flowCase/processor95/constant/polyMesh"
    pointProcAddressing
    faceProcAddressing
    cellProcAddressing
    boundaryProcAddressing

Time = 1


Writing merged mesh to "1/polyMesh"

Reconstructing addressing from processor meshes to the newly reconstructed mesh

Processor 0
Read processor mesh: "flowCase/processor0"
Writing addressing : "flowCase/processor0/1/polyMesh"
    pointProcAddressing
    faceProcAddressing
    cellProcAddressing
    boundaryProcAddressing

Processor 1
Read processor mesh: "flowCase/processor1"
Writing addressing : "flowCase/processor1/1/polyMesh"
    pointProcAddressing
    faceProcAddressing
    cellProcAddressing
    boundaryProcAddressing

Processor 2
Read processor mesh: "flowCase/processor2"
Writing addressing : "flowCase/processor2/1/polyMesh"
    pointProcAddressing
    faceProcAddressing
    cellProcAddressing
    boundaryProcAddressing

Processor 3
Read processor mesh: "flowCase/processor3"
Writing addressing : "flowCase/processor3/1/polyMesh"
    pointProcAddressing
    faceProcAddressing
    cellProcAddressing
    boundaryProcAddressing

Processor 4
Read processor mesh: "flowCase/processor4"
Writing addressing : "flowCase/processor4/1/polyMesh"
    pointProcAddressing
    faceProcAddressing
    cellProcAddressing
    boundaryProcAddressing

Processor 5
Read processor mesh: "flowCase/processor5"
Writing addressing : "flowCase/processor5/1/polyMesh"
    pointProcAddressing
    faceProcAddressing
    cellProcAddressing
    boundaryProcAddressing

Processor 6
Read processor mesh: "flowCase/processor6"
Writing addressing : "flowCase/processor6/1/polyMesh"
    pointProcAddressing
    faceProcAddressing
    cellProcAddressing
    boundaryProcAddressing

Processor 7
Read processor mesh: "flowCase/processor7"
Writing addressing : "flowCase/processor7/1/polyMesh"
    pointProcAddressing
    faceProcAddressing
    cellProcAddressing
    boundaryProcAddressing

Processor 8
Read processor mesh: "flowCase/processor8"
Writing addressing : "flowCase/processor8/1/polyMesh"
    pointProcAddressing
    faceProcAddressing
    cellProcAddressing
    boundaryProcAddressing

Processor 9
Read processor mesh: "flowCase/processor9"
Writing addressing : "flowCase/processor9/1/polyMesh"
    pointProcAddressing
    faceProcAddressing
    cellProcAddressing
    boundaryProcAddressing

Processor 10
Read processor mesh: "flowCase/processor10"
Writing addressing : "flowCase/processor10/1/polyMesh"
    pointProcAddressing
    faceProcAddressing
    cellProcAddressing
    boundaryProcAddressing

Processor 11
Read processor mesh: "flowCase/processor11"
Writing addressing : "flowCase/processor11/1/polyMesh"
    pointProcAddressing
    faceProcAddressing
    cellProcAddressing
    boundaryProcAddressing

Processor 12
Read processor mesh: "flowCase/processor12"
Writing addressing : "flowCase/processor12/1/polyMesh"
    pointProcAddressing
    faceProcAddressing
    cellProcAddressing
    boundaryProcAddressing

Processor 13
Read processor mesh: "flowCase/processor13"
Writing addressing : "flowCase/processor13/1/polyMesh"
    pointProcAddressing
    faceProcAddressing
    cellProcAddressing
    boundaryProcAddressing

Processor 14
Read processor mesh: "flowCase/processor14"
Writing addressing : "flowCase/processor14/1/polyMesh"
    pointProcAddressing
    faceProcAddressing
    cellProcAddressing
    boundaryProcAddressing

Processor 15
Read processor mesh: "flowCase/processor15"
Writing addressing : "flowCase/processor15/1/polyMesh"
    pointProcAddressing
    faceProcAddressing
    cellProcAddressing
    boundaryProcAddressing

Processor 16
Read processor mesh: "flowCase/processor16"
Writing addressing : "flowCase/processor16/1/polyMesh"
    pointProcAddressing
    faceProcAddressing
    cellProcAddressing
    boundaryProcAddressing

Processor 17
Read processor mesh: "flowCase/processor17"
Writing addressing : "flowCase/processor17/1/polyMesh"
    pointProcAddressing
    faceProcAddressing
    cellProcAddressing
    boundaryProcAddressing

Processor 18
Read processor mesh: "flowCase/processor18"
Writing addressing : "flowCase/processor18/1/polyMesh"
    pointProcAddressing
    faceProcAddressing
    cellProcAddressing
    boundaryProcAddressing

Processor 19
Read processor mesh: "flowCase/processor19"
Writing addressing : "flowCase/processor19/1/polyMesh"
    pointProcAddressing
    faceProcAddressing
    cellProcAddressing
    boundaryProcAddressing

Processor 20
Read processor mesh: "flowCase/processor20"
Writing addressing : "flowCase/processor20/1/polyMesh"
    pointProcAddressing
    faceProcAddressing
    cellProcAddressing
    boundaryProcAddressing

Processor 21
Read processor mesh: "flowCase/processor21"
Writing addressing : "flowCase/processor21/1/polyMesh"
    pointProcAddressing
    faceProcAddressing
    cellProcAddressing
    boundaryProcAddressing

Processor 22
Read processor mesh: "flowCase/processor22"
Writing addressing : "flowCase/processor22/1/polyMesh"
    pointProcAddressing
    faceProcAddressing
    cellProcAddressing
    boundaryProcAddressing

Processor 23
Read processor mesh: "flowCase/processor23"
Writing addressing : "flowCase/processor23/1/polyMesh"
    pointProcAddressing
    faceProcAddressing
    cellProcAddressing
    boundaryProcAddressing

Processor 24
Read processor mesh: "flowCase/processor24"
Writing addressing : "flowCase/processor24/1/polyMesh"
    pointProcAddressing
    faceProcAddressing
    cellProcAddressing
    boundaryProcAddressing

Processor 25
Read processor mesh: "flowCase/processor25"
Writing addressing : "flowCase/processor25/1/polyMesh"
    pointProcAddressing
    faceProcAddressing
    cellProcAddressing
    boundaryProcAddressing

Processor 26
Read processor mesh: "flowCase/processor26"
Writing addressing : "flowCase/processor26/1/polyMesh"
    pointProcAddressing
    faceProcAddressing
    cellProcAddressing
    boundaryProcAddressing

Processor 27
Read processor mesh: "flowCase/processor27"
Writing addressing : "flowCase/processor27/1/polyMesh"
    pointProcAddressing
    faceProcAddressing
    cellProcAddressing
    boundaryProcAddressing

Processor 28
Read processor mesh: "flowCase/processor28"
Writing addressing : "flowCase/processor28/1/polyMesh"
    pointProcAddressing
    faceProcAddressing
    cellProcAddressing
    boundaryProcAddressing

Processor 29
Read processor mesh: "flowCase/processor29"
Writing addressing : "flowCase/processor29/1/polyMesh"
    pointProcAddressing
    faceProcAddressing
    cellProcAddressing
    boundaryProcAddressing

Processor 30
Read processor mesh: "flowCase/processor30"
Writing addressing : "flowCase/processor30/1/polyMesh"
    pointProcAddressing
    faceProcAddressing
    cellProcAddressing
    boundaryProcAddressing

Processor 31
Read processor mesh: "flowCase/processor31"
Writing addressing : "flowCase/processor31/1/polyMesh"
    pointProcAddressing
    faceProcAddressing
    cellProcAddressing
    boundaryProcAddressing

Processor 32
Read processor mesh: "flowCase/processor32"
Writing addressing : "flowCase/processor32/1/polyMesh"
    pointProcAddressing
    faceProcAddressing
    cellProcAddressing
    boundaryProcAddressing

Processor 33
Read processor mesh: "flowCase/processor33"
Writing addressing : "flowCase/processor33/1/polyMesh"
    pointProcAddressing
    faceProcAddressing
    cellProcAddressing
    boundaryProcAddressing

Processor 34
Read processor mesh: "flowCase/processor34"
Writing addressing : "flowCase/processor34/1/polyMesh"
    pointProcAddressing
    faceProcAddressing
    cellProcAddressing
    boundaryProcAddressing

Processor 35
Read processor mesh: "flowCase/processor35"
Writing addressing : "flowCase/processor35/1/polyMesh"
    pointProcAddressing
    faceProcAddressing
    cellProcAddressing
    boundaryProcAddressing

Processor 36
Read processor mesh: "flowCase/processor36"
Writing addressing : "flowCase/processor36/1/polyMesh"
    pointProcAddressing
    faceProcAddressing
    cellProcAddressing
    boundaryProcAddressing

Processor 37
Read processor mesh: "flowCase/processor37"
Writing addressing : "flowCase/processor37/1/polyMesh"
    pointProcAddressing
    faceProcAddressing
    cellProcAddressing
    boundaryProcAddressing

Processor 38
Read processor mesh: "flowCase/processor38"
Writing addressing : "flowCase/processor38/1/polyMesh"
    pointProcAddressing
    faceProcAddressing
    cellProcAddressing
    boundaryProcAddressing

Processor 39
Read processor mesh: "flowCase/processor39"
Writing addressing : "flowCase/processor39/1/polyMesh"
    pointProcAddressing
    faceProcAddressing
    cellProcAddressing
    boundaryProcAddressing

Processor 40
Read processor mesh: "flowCase/processor40"
Writing addressing : "flowCase/processor40/1/polyMesh"
    pointProcAddressing
    faceProcAddressing
    cellProcAddressing
    boundaryProcAddressing

Processor 41
Read processor mesh: "flowCase/processor41"
Writing addressing : "flowCase/processor41/1/polyMesh"
    pointProcAddressing
    faceProcAddressing
    cellProcAddressing
    boundaryProcAddressing

Processor 42
Read processor mesh: "flowCase/processor42"
Writing addressing : "flowCase/processor42/1/polyMesh"
    pointProcAddressing
    faceProcAddressing
    cellProcAddressing
    boundaryProcAddressing

Processor 43
Read processor mesh: "flowCase/processor43"
Writing addressing : "flowCase/processor43/1/polyMesh"
    pointProcAddressing
    faceProcAddressing
    cellProcAddressing
    boundaryProcAddressing

Processor 44
Read processor mesh: "flowCase/processor44"
Writing addressing : "flowCase/processor44/1/polyMesh"
    pointProcAddressing
    faceProcAddressing
    cellProcAddressing
    boundaryProcAddressing

Processor 45
Read processor mesh: "flowCase/processor45"
Writing addressing : "flowCase/processor45/1/polyMesh"
    pointProcAddressing
    faceProcAddressing
    cellProcAddressing
    boundaryProcAddressing

Processor 46
Read processor mesh: "flowCase/processor46"
Writing addressing : "flowCase/processor46/1/polyMesh"
    pointProcAddressing
    faceProcAddressing
    cellProcAddressing
    boundaryProcAddressing

Processor 47
Read processor mesh: "flowCase/processor47"
Writing addressing : "flowCase/processor47/1/polyMesh"
    pointProcAddressing
    faceProcAddressing
    cellProcAddressing
    boundaryProcAddressing

Processor 48
Read processor mesh: "flowCase/processor48"
Writing addressing : "flowCase/processor48/1/polyMesh"
    pointProcAddressing
    faceProcAddressing
    cellProcAddressing
    boundaryProcAddressing

Processor 49
Read processor mesh: "flowCase/processor49"
Writing addressing : "flowCase/processor49/1/polyMesh"
    pointProcAddressing
    faceProcAddressing
    cellProcAddressing
    boundaryProcAddressing

Processor 50
Read processor mesh: "flowCase/processor50"
Writing addressing : "flowCase/processor50/1/polyMesh"
    pointProcAddressing
    faceProcAddressing
    cellProcAddressing
    boundaryProcAddressing

Processor 51
Read processor mesh: "flowCase/processor51"
Writing addressing : "flowCase/processor51/1/polyMesh"
    pointProcAddressing
    faceProcAddressing
    cellProcAddressing
    boundaryProcAddressing

Processor 52
Read processor mesh: "flowCase/processor52"
Writing addressing : "flowCase/processor52/1/polyMesh"
    pointProcAddressing
    faceProcAddressing
    cellProcAddressing
    boundaryProcAddressing

Processor 53
Read processor mesh: "flowCase/processor53"
Writing addressing : "flowCase/processor53/1/polyMesh"
    pointProcAddressing
    faceProcAddressing
    cellProcAddressing
    boundaryProcAddressing

Processor 54
Read processor mesh: "flowCase/processor54"
Writing addressing : "flowCase/processor54/1/polyMesh"
    pointProcAddressing
    faceProcAddressing
    cellProcAddressing
    boundaryProcAddressing

Processor 55
Read processor mesh: "flowCase/processor55"
Writing addressing : "flowCase/processor55/1/polyMesh"
    pointProcAddressing
    faceProcAddressing
    cellProcAddressing
    boundaryProcAddressing

Processor 56
Read processor mesh: "flowCase/processor56"
Writing addressing : "flowCase/processor56/1/polyMesh"
    pointProcAddressing
    faceProcAddressing
    cellProcAddressing
    boundaryProcAddressing

Processor 57
Read processor mesh: "flowCase/processor57"
Writing addressing : "flowCase/processor57/1/polyMesh"
    pointProcAddressing
    faceProcAddressing
    cellProcAddressing
    boundaryProcAddressing

Processor 58
Read processor mesh: "flowCase/processor58"
Writing addressing : "flowCase/processor58/1/polyMesh"
    pointProcAddressing
    faceProcAddressing
    cellProcAddressing
    boundaryProcAddressing

Processor 59
Read processor mesh: "flowCase/processor59"
Writing addressing : "flowCase/processor59/1/polyMesh"
    pointProcAddressing
    faceProcAddressing
    cellProcAddressing
    boundaryProcAddressing

Processor 60
Read processor mesh: "flowCase/processor60"
Writing addressing : "flowCase/processor60/1/polyMesh"
    pointProcAddressing
    faceProcAddressing
    cellProcAddressing
    boundaryProcAddressing

Processor 61
Read processor mesh: "flowCase/processor61"
Writing addressing : "flowCase/processor61/1/polyMesh"
    pointProcAddressing
    faceProcAddressing
    cellProcAddressing
    boundaryProcAddressing

Processor 62
Read processor mesh: "flowCase/processor62"
Writing addressing : "flowCase/processor62/1/polyMesh"
    pointProcAddressing
    faceProcAddressing
    cellProcAddressing
    boundaryProcAddressing

Processor 63
Read processor mesh: "flowCase/processor63"
Writing addressing : "flowCase/processor63/1/polyMesh"
    pointProcAddressing
    faceProcAddressing
    cellProcAddressing
    boundaryProcAddressing

Processor 64
Read processor mesh: "flowCase/processor64"
Writing addressing : "flowCase/processor64/1/polyMesh"
    pointProcAddressing
    faceProcAddressing
    cellProcAddressing
    boundaryProcAddressing

Processor 65
Read processor mesh: "flowCase/processor65"
Writing addressing : "flowCase/processor65/1/polyMesh"
    pointProcAddressing
    faceProcAddressing
    cellProcAddressing
    boundaryProcAddressing

Processor 66
Read processor mesh: "flowCase/processor66"
Writing addressing : "flowCase/processor66/1/polyMesh"
    pointProcAddressing
    faceProcAddressing
    cellProcAddressing
    boundaryProcAddressing

Processor 67
Read processor mesh: "flowCase/processor67"
Writing addressing : "flowCase/processor67/1/polyMesh"
    pointProcAddressing
    faceProcAddressing
    cellProcAddressing
    boundaryProcAddressing

Processor 68
Read processor mesh: "flowCase/processor68"
Writing addressing : "flowCase/processor68/1/polyMesh"
    pointProcAddressing
    faceProcAddressing
    cellProcAddressing
    boundaryProcAddressing

Processor 69
Read processor mesh: "flowCase/processor69"
Writing addressing : "flowCase/processor69/1/polyMesh"
    pointProcAddressing
    faceProcAddressing
    cellProcAddressing
    boundaryProcAddressing

Processor 70
Read processor mesh: "flowCase/processor70"
Writing addressing : "flowCase/processor70/1/polyMesh"
    pointProcAddressing
    faceProcAddressing
    cellProcAddressing
    boundaryProcAddressing

Processor 71
Read processor mesh: "flowCase/processor71"
Writing addressing : "flowCase/processor71/1/polyMesh"
    pointProcAddressing
    faceProcAddressing
    cellProcAddressing
    boundaryProcAddressing

Processor 72
Read processor mesh: "flowCase/processor72"
Writing addressing : "flowCase/processor72/1/polyMesh"
    pointProcAddressing
    faceProcAddressing
    cellProcAddressing
    boundaryProcAddressing

Processor 73
Read processor mesh: "flowCase/processor73"
Writing addressing : "flowCase/processor73/1/polyMesh"
    pointProcAddressing
    faceProcAddressing
    cellProcAddressing
    boundaryProcAddressing

Processor 74
Read processor mesh: "flowCase/processor74"
Writing addressing : "flowCase/processor74/1/polyMesh"
    pointProcAddressing
    faceProcAddressing
    cellProcAddressing
    boundaryProcAddressing

Processor 75
Read processor mesh: "flowCase/processor75"
Writing addressing : "flowCase/processor75/1/polyMesh"
    pointProcAddressing
    faceProcAddressing
    cellProcAddressing
    boundaryProcAddressing

Processor 76
Read processor mesh: "flowCase/processor76"
Writing addressing : "flowCase/processor76/1/polyMesh"
    pointProcAddressing
    faceProcAddressing
    cellProcAddressing
    boundaryProcAddressing

Processor 77
Read processor mesh: "flowCase/processor77"
Writing addressing : "flowCase/processor77/1/polyMesh"
    pointProcAddressing
    faceProcAddressing
    cellProcAddressing
    boundaryProcAddressing

Processor 78
Read processor mesh: "flowCase/processor78"
Writing addressing : "flowCase/processor78/1/polyMesh"
    pointProcAddressing
    faceProcAddressing
    cellProcAddressing
    boundaryProcAddressing

Processor 79
Read processor mesh: "flowCase/processor79"
Writing addressing : "flowCase/processor79/1/polyMesh"
    pointProcAddressing
    faceProcAddressing
    cellProcAddressing
    boundaryProcAddressing

Processor 80
Read processor mesh: "flowCase/processor80"
Writing addressing : "flowCase/processor80/1/polyMesh"
    pointProcAddressing
    faceProcAddressing
    cellProcAddressing
    boundaryProcAddressing

Processor 81
Read processor mesh: "flowCase/processor81"
Writing addressing : "flowCase/processor81/1/polyMesh"
    pointProcAddressing
    faceProcAddressing
    cellProcAddressing
    boundaryProcAddressing

Processor 82
Read processor mesh: "flowCase/processor82"
Writing addressing : "flowCase/processor82/1/polyMesh"
    pointProcAddressing
    faceProcAddressing
    cellProcAddressing
    boundaryProcAddressing

Processor 83
Read processor mesh: "flowCase/processor83"
Writing addressing : "flowCase/processor83/1/polyMesh"
    pointProcAddressing
    faceProcAddressing
    cellProcAddressing
    boundaryProcAddressing

Processor 84
Read processor mesh: "flowCase/processor84"
Writing addressing : "flowCase/processor84/1/polyMesh"
    pointProcAddressing
    faceProcAddressing
    cellProcAddressing
    boundaryProcAddressing

Processor 85
Read processor mesh: "flowCase/processor85"
Writing addressing : "flowCase/processor85/1/polyMesh"
    pointProcAddressing
    faceProcAddressing
    cellProcAddressing
    boundaryProcAddressing

Processor 86
Read processor mesh: "flowCase/processor86"
Writing addressing : "flowCase/processor86/1/polyMesh"
    pointProcAddressing
    faceProcAddressing
    cellProcAddressing
    boundaryProcAddressing

Processor 87
Read processor mesh: "flowCase/processor87"
Writing addressing : "flowCase/processor87/1/polyMesh"
    pointProcAddressing
    faceProcAddressing
    cellProcAddressing
    boundaryProcAddressing

Processor 88
Read processor mesh: "flowCase/processor88"
Writing addressing : "flowCase/processor88/1/polyMesh"
    pointProcAddressing
    faceProcAddressing
    cellProcAddressing
    boundaryProcAddressing

Processor 89
Read processor mesh: "flowCase/processor89"
Writing addressing : "flowCase/processor89/1/polyMesh"
    pointProcAddressing
    faceProcAddressing
    cellProcAddressing
    boundaryProcAddressing

Processor 90
Read processor mesh: "flowCase/processor90"
Writing addressing : "flowCase/processor90/1/polyMesh"
    pointProcAddressing
    faceProcAddressing
    cellProcAddressing
    boundaryProcAddressing

Processor 91
Read processor mesh: "flowCase/processor91"
Writing addressing : "flowCase/processor91/1/polyMesh"
    pointProcAddressing
    faceProcAddressing
    cellProcAddressing
    boundaryProcAddressing

Processor 92
Read processor mesh: "flowCase/processor92"
Writing addressing : "flowCase/processor92/1/polyMesh"
    pointProcAddressing
    faceProcAddressing
    cellProcAddressing
    boundaryProcAddressing

Processor 93
Read processor mesh: "flowCase/processor93"
Writing addressing : "flowCase/processor93/1/polyMesh"
    pointProcAddressing
    faceProcAddressing
    cellProcAddressing
    boundaryProcAddressing

Processor 94
Read processor mesh: "flowCase/processor94"
Writing addressing : "flowCase/processor94/1/polyMesh"
    pointProcAddressing
    faceProcAddressing
    cellProcAddressing
    boundaryProcAddressing

Processor 95
Read processor mesh: "flowCase/processor95"
Writing addressing : "flowCase/processor95/1/polyMesh"
    pointProcAddressing
    faceProcAddressing
    cellProcAddressing
    boundaryProcAddressing

Time = 2


Writing merged mesh to "2/polyMesh"

Reconstructing addressing from processor meshes to the newly reconstructed mesh

Processor 0
Read processor mesh: "flowCase/processor0"
Writing addressing : "flowCase/processor0/2/polyMesh"
    pointProcAddressing
    faceProcAddressing
    cellProcAddressing
    boundaryProcAddressing

Processor 1
Read processor mesh: "flowCase/processor1"
Writing addressing : "flowCase/processor1/2/polyMesh"
    pointProcAddressing
    faceProcAddressing
    cellProcAddressing
    boundaryProcAddressing

Processor 2
Read processor mesh: "flowCase/processor2"
Writing addressing : "flowCase/processor2/2/polyMesh"
    pointProcAddressing
    faceProcAddressing
    cellProcAddressing
    boundaryProcAddressing

Processor 3
Read processor mesh: "flowCase/processor3"
Writing addressing : "flowCase/processor3/2/polyMesh"
    pointProcAddressing
    faceProcAddressing
    cellProcAddressing
    boundaryProcAddressing

Processor 4
Read processor mesh: "flowCase/processor4"
Writing addressing : "flowCase/processor4/2/polyMesh"
    pointProcAddressing
    faceProcAddressing
    cellProcAddressing
    boundaryProcAddressing

Processor 5
Read processor mesh: "flowCase/processor5"
Writing addressing : "flowCase/processor5/2/polyMesh"
    pointProcAddressing
    faceProcAddressing
    cellProcAddressing
    boundaryProcAddressing

Processor 6
Read processor mesh: "flowCase/processor6"
Writing addressing : "flowCase/processor6/2/polyMesh"
    pointProcAddressing
    faceProcAddressing
    cellProcAddressing
    boundaryProcAddressing

Processor 7
Read processor mesh: "flowCase/processor7"
Writing addressing : "flowCase/processor7/2/polyMesh"
    pointProcAddressing
    faceProcAddressing
    cellProcAddressing
    boundaryProcAddressing

Processor 8
Read processor mesh: "flowCase/processor8"
Writing addressing : "flowCase/processor8/2/polyMesh"
    pointProcAddressing
    faceProcAddressing
    cellProcAddressing
    boundaryProcAddressing

Processor 9
Read processor mesh: "flowCase/processor9"
Writing addressing : "flowCase/processor9/2/polyMesh"
    pointProcAddressing
    faceProcAddressing
    cellProcAddressing
    boundaryProcAddressing

Processor 10
Read processor mesh: "flowCase/processor10"
Writing addressing : "flowCase/processor10/2/polyMesh"
    pointProcAddressing
    faceProcAddressing
    cellProcAddressing
    boundaryProcAddressing

Processor 11
Read processor mesh: "flowCase/processor11"
Writing addressing : "flowCase/processor11/2/polyMesh"
    pointProcAddressing
    faceProcAddressing
    cellProcAddressing
    boundaryProcAddressing

Processor 12
Read processor mesh: "flowCase/processor12"
Writing addressing : "flowCase/processor12/2/polyMesh"
    pointProcAddressing
    faceProcAddressing
    cellProcAddressing
    boundaryProcAddressing

Processor 13
Read processor mesh: "flowCase/processor13"
Writing addressing : "flowCase/processor13/2/polyMesh"
    pointProcAddressing
    faceProcAddressing
    cellProcAddressing
    boundaryProcAddressing

Processor 14
Read processor mesh: "flowCase/processor14"
Writing addressing : "flowCase/processor14/2/polyMesh"
    pointProcAddressing
    faceProcAddressing
    cellProcAddressing
    boundaryProcAddressing

Processor 15
Read processor mesh: "flowCase/processor15"
Writing addressing : "flowCase/processor15/2/polyMesh"
    pointProcAddressing
    faceProcAddressing
    cellProcAddressing
    boundaryProcAddressing

Processor 16
Read processor mesh: "flowCase/processor16"
Writing addressing : "flowCase/processor16/2/polyMesh"
    pointProcAddressing
    faceProcAddressing
    cellProcAddressing
    boundaryProcAddressing

Processor 17
Read processor mesh: "flowCase/processor17"
Writing addressing : "flowCase/processor17/2/polyMesh"
    pointProcAddressing
    faceProcAddressing
    cellProcAddressing
    boundaryProcAddressing

Processor 18
Read processor mesh: "flowCase/processor18"
Writing addressing : "flowCase/processor18/2/polyMesh"
    pointProcAddressing
    faceProcAddressing
    cellProcAddressing
    boundaryProcAddressing

Processor 19
Read processor mesh: "flowCase/processor19"
Writing addressing : "flowCase/processor19/2/polyMesh"
    pointProcAddressing
    faceProcAddressing
    cellProcAddressing
    boundaryProcAddressing

Processor 20
Read processor mesh: "flowCase/processor20"
Writing addressing : "flowCase/processor20/2/polyMesh"
    pointProcAddressing
    faceProcAddressing
    cellProcAddressing
    boundaryProcAddressing

Processor 21
Read processor mesh: "flowCase/processor21"
Writing addressing : "flowCase/processor21/2/polyMesh"
    pointProcAddressing
    faceProcAddressing
    cellProcAddressing
    boundaryProcAddressing

Processor 22
Read processor mesh: "flowCase/processor22"
Writing addressing : "flowCase/processor22/2/polyMesh"
    pointProcAddressing
    faceProcAddressing
    cellProcAddressing
    boundaryProcAddressing

Processor 23
Read processor mesh: "flowCase/processor23"
Writing addressing : "flowCase/processor23/2/polyMesh"
    pointProcAddressing
    faceProcAddressing
    cellProcAddressing
    boundaryProcAddressing

Processor 24
Read processor mesh: "flowCase/processor24"
Writing addressing : "flowCase/processor24/2/polyMesh"
    pointProcAddressing
    faceProcAddressing
    cellProcAddressing
    boundaryProcAddressing

Processor 25
Read processor mesh: "flowCase/processor25"
Writing addressing : "flowCase/processor25/2/polyMesh"
    pointProcAddressing
    faceProcAddressing
    cellProcAddressing
    boundaryProcAddressing

Processor 26
Read processor mesh: "flowCase/processor26"
Writing addressing : "flowCase/processor26/2/polyMesh"
    pointProcAddressing
    faceProcAddressing
    cellProcAddressing
    boundaryProcAddressing

Processor 27
Read processor mesh: "flowCase/processor27"
Writing addressing : "flowCase/processor27/2/polyMesh"
    pointProcAddressing
    faceProcAddressing
    cellProcAddressing
    boundaryProcAddressing

Processor 28
Read processor mesh: "flowCase/processor28"
Writing addressing : "flowCase/processor28/2/polyMesh"
    pointProcAddressing
    faceProcAddressing
    cellProcAddressing
    boundaryProcAddressing

Processor 29
Read processor mesh: "flowCase/processor29"
Writing addressing : "flowCase/processor29/2/polyMesh"
    pointProcAddressing
    faceProcAddressing
    cellProcAddressing
    boundaryProcAddressing

Processor 30
Read processor mesh: "flowCase/processor30"
Writing addressing : "flowCase/processor30/2/polyMesh"
    pointProcAddressing
    faceProcAddressing
    cellProcAddressing
    boundaryProcAddressing

Processor 31
Read processor mesh: "flowCase/processor31"
Writing addressing : "flowCase/processor31/2/polyMesh"
    pointProcAddressing
    faceProcAddressing
    cellProcAddressing
    boundaryProcAddressing

Processor 32
Read processor mesh: "flowCase/processor32"
Writing addressing : "flowCase/processor32/2/polyMesh"
    pointProcAddressing
    faceProcAddressing
    cellProcAddressing
    boundaryProcAddressing

Processor 33
Read processor mesh: "flowCase/processor33"
Writing addressing : "flowCase/processor33/2/polyMesh"
    pointProcAddressing
    faceProcAddressing
    cellProcAddressing
    boundaryProcAddressing

Processor 34
Read processor mesh: "flowCase/processor34"
Writing addressing : "flowCase/processor34/2/polyMesh"
    pointProcAddressing
    faceProcAddressing
    cellProcAddressing
    boundaryProcAddressing

Processor 35
Read processor mesh: "flowCase/processor35"
Writing addressing : "flowCase/processor35/2/polyMesh"
    pointProcAddressing
    faceProcAddressing
    cellProcAddressing
    boundaryProcAddressing

Processor 36
Read processor mesh: "flowCase/processor36"
Writing addressing : "flowCase/processor36/2/polyMesh"
    pointProcAddressing
    faceProcAddressing
    cellProcAddressing
    boundaryProcAddressing

Processor 37
Read processor mesh: "flowCase/processor37"
Writing addressing : "flowCase/processor37/2/polyMesh"
    pointProcAddressing
    faceProcAddressing
    cellProcAddressing
    boundaryProcAddressing

Processor 38
Read processor mesh: "flowCase/processor38"
Writing addressing : "flowCase/processor38/2/polyMesh"
    pointProcAddressing
    faceProcAddressing
    cellProcAddressing
    boundaryProcAddressing

Processor 39
Read processor mesh: "flowCase/processor39"
Writing addressing : "flowCase/processor39/2/polyMesh"
    pointProcAddressing
    faceProcAddressing
    cellProcAddressing
    boundaryProcAddressing

Processor 40
Read processor mesh: "flowCase/processor40"
Writing addressing : "flowCase/processor40/2/polyMesh"
    pointProcAddressing
    faceProcAddressing
    cellProcAddressing
    boundaryProcAddressing

Processor 41
Read processor mesh: "flowCase/processor41"
Writing addressing : "flowCase/processor41/2/polyMesh"
    pointProcAddressing
    faceProcAddressing
    cellProcAddressing
    boundaryProcAddressing

Processor 42
Read processor mesh: "flowCase/processor42"
Writing addressing : "flowCase/processor42/2/polyMesh"
    pointProcAddressing
    faceProcAddressing
    cellProcAddressing
    boundaryProcAddressing

Processor 43
Read processor mesh: "flowCase/processor43"
Writing addressing : "flowCase/processor43/2/polyMesh"
    pointProcAddressing
    faceProcAddressing
    cellProcAddressing
    boundaryProcAddressing

Processor 44
Read processor mesh: "flowCase/processor44"
Writing addressing : "flowCase/processor44/2/polyMesh"
    pointProcAddressing
    faceProcAddressing
    cellProcAddressing
    boundaryProcAddressing

Processor 45
Read processor mesh: "flowCase/processor45"
Writing addressing : "flowCase/processor45/2/polyMesh"
    pointProcAddressing
    faceProcAddressing
    cellProcAddressing
    boundaryProcAddressing

Processor 46
Read processor mesh: "flowCase/processor46"
Writing addressing : "flowCase/processor46/2/polyMesh"
    pointProcAddressing
    faceProcAddressing
    cellProcAddressing
    boundaryProcAddressing

Processor 47
Read processor mesh: "flowCase/processor47"
Writing addressing : "flowCase/processor47/2/polyMesh"
    pointProcAddressing
    faceProcAddressing
    cellProcAddressing
    boundaryProcAddressing

Processor 48
Read processor mesh: "flowCase/processor48"
Writing addressing : "flowCase/processor48/2/polyMesh"
    pointProcAddressing
    faceProcAddressing
    cellProcAddressing
    boundaryProcAddressing

Processor 49
Read processor mesh: "flowCase/processor49"
Writing addressing : "flowCase/processor49/2/polyMesh"
    pointProcAddressing
    faceProcAddressing
    cellProcAddressing
    boundaryProcAddressing

Processor 50
Read processor mesh: "flowCase/processor50"
Writing addressing : "flowCase/processor50/2/polyMesh"
    pointProcAddressing
    faceProcAddressing
    cellProcAddressing
    boundaryProcAddressing

Processor 51
Read processor mesh: "flowCase/processor51"
Writing addressing : "flowCase/processor51/2/polyMesh"
    pointProcAddressing
    faceProcAddressing
    cellProcAddressing
    boundaryProcAddressing

Processor 52
Read processor mesh: "flowCase/processor52"
Writing addressing : "flowCase/processor52/2/polyMesh"
    pointProcAddressing
    faceProcAddressing
    cellProcAddressing
    boundaryProcAddressing

Processor 53
Read processor mesh: "flowCase/processor53"
Writing addressing : "flowCase/processor53/2/polyMesh"
    pointProcAddressing
    faceProcAddressing
    cellProcAddressing
    boundaryProcAddressing

Processor 54
Read processor mesh: "flowCase/processor54"
Writing addressing : "flowCase/processor54/2/polyMesh"
    pointProcAddressing
    faceProcAddressing
    cellProcAddressing
    boundaryProcAddressing

Processor 55
Read processor mesh: "flowCase/processor55"
Writing addressing : "flowCase/processor55/2/polyMesh"
    pointProcAddressing
    faceProcAddressing
    cellProcAddressing
    boundaryProcAddressing

Processor 56
Read processor mesh: "flowCase/processor56"
Writing addressing : "flowCase/processor56/2/polyMesh"
    pointProcAddressing
    faceProcAddressing
    cellProcAddressing
    boundaryProcAddressing

Processor 57
Read processor mesh: "flowCase/processor57"
Writing addressing : "flowCase/processor57/2/polyMesh"
    pointProcAddressing
    faceProcAddressing
    cellProcAddressing
    boundaryProcAddressing

Processor 58
Read processor mesh: "flowCase/processor58"
Writing addressing : "flowCase/processor58/2/polyMesh"
    pointProcAddressing
    faceProcAddressing
    cellProcAddressing
    boundaryProcAddressing

Processor 59
Read processor mesh: "flowCase/processor59"
Writing addressing : "flowCase/processor59/2/polyMesh"
    pointProcAddressing
    faceProcAddressing
    cellProcAddressing
    boundaryProcAddressing

Processor 60
Read processor mesh: "flowCase/processor60"
Writing addressing : "flowCase/processor60/2/polyMesh"
    pointProcAddressing
    faceProcAddressing
    cellProcAddressing
    boundaryProcAddressing

Processor 61
Read processor mesh: "flowCase/processor61"
Writing addressing : "flowCase/processor61/2/polyMesh"
    pointProcAddressing
    faceProcAddressing
    cellProcAddressing
    boundaryProcAddressing

Processor 62
Read processor mesh: "flowCase/processor62"
Writing addressing : "flowCase/processor62/2/polyMesh"
    pointProcAddressing
    faceProcAddressing
    cellProcAddressing
    boundaryProcAddressing

Processor 63
Read processor mesh: "flowCase/processor63"
Writing addressing : "flowCase/processor63/2/polyMesh"
    pointProcAddressing
    faceProcAddressing
    cellProcAddressing
    boundaryProcAddressing

Processor 64
Read processor mesh: "flowCase/processor64"
Writing addressing : "flowCase/processor64/2/polyMesh"
    pointProcAddressing
    faceProcAddressing
    cellProcAddressing
    boundaryProcAddressing

Processor 65
Read processor mesh: "flowCase/processor65"
Writing addressing : "flowCase/processor65/2/polyMesh"
    pointProcAddressing
    faceProcAddressing
    cellProcAddressing
    boundaryProcAddressing

Processor 66
Read processor mesh: "flowCase/processor66"
Writing addressing : "flowCase/processor66/2/polyMesh"
    pointProcAddressing
    faceProcAddressing
    cellProcAddressing
    boundaryProcAddressing

Processor 67
Read processor mesh: "flowCase/processor67"
Writing addressing : "flowCase/processor67/2/polyMesh"
    pointProcAddressing
    faceProcAddressing
    cellProcAddressing
    boundaryProcAddressing

Processor 68
Read processor mesh: "flowCase/processor68"
Writing addressing : "flowCase/processor68/2/polyMesh"
    pointProcAddressing
    faceProcAddressing
    cellProcAddressing
    boundaryProcAddressing

Processor 69
Read processor mesh: "flowCase/processor69"
Writing addressing : "flowCase/processor69/2/polyMesh"
    pointProcAddressing
    faceProcAddressing
    cellProcAddressing
    boundaryProcAddressing

Processor 70
Read processor mesh: "flowCase/processor70"
Writing addressing : "flowCase/processor70/2/polyMesh"
    pointProcAddressing
    faceProcAddressing
    cellProcAddressing
    boundaryProcAddressing

Processor 71
Read processor mesh: "flowCase/processor71"
Writing addressing : "flowCase/processor71/2/polyMesh"
    pointProcAddressing
    faceProcAddressing
    cellProcAddressing
    boundaryProcAddressing

Processor 72
Read processor mesh: "flowCase/processor72"
Writing addressing : "flowCase/processor72/2/polyMesh"
    pointProcAddressing
    faceProcAddressing
    cellProcAddressing
    boundaryProcAddressing

Processor 73
Read processor mesh: "flowCase/processor73"
Writing addressing : "flowCase/processor73/2/polyMesh"
    pointProcAddressing
    faceProcAddressing
    cellProcAddressing
    boundaryProcAddressing

Processor 74
Read processor mesh: "flowCase/processor74"
Writing addressing : "flowCase/processor74/2/polyMesh"
    pointProcAddressing
    faceProcAddressing
    cellProcAddressing
    boundaryProcAddressing

Processor 75
Read processor mesh: "flowCase/processor75"
Writing addressing : "flowCase/processor75/2/polyMesh"
    pointProcAddressing
    faceProcAddressing
    cellProcAddressing
    boundaryProcAddressing

Processor 76
Read processor mesh: "flowCase/processor76"
Writing addressing : "flowCase/processor76/2/polyMesh"
    pointProcAddressing
    faceProcAddressing
    cellProcAddressing
    boundaryProcAddressing

Processor 77
Read processor mesh: "flowCase/processor77"
Writing addressing : "flowCase/processor77/2/polyMesh"
    pointProcAddressing
    faceProcAddressing
    cellProcAddressing
    boundaryProcAddressing

Processor 78
Read processor mesh: "flowCase/processor78"
Writing addressing : "flowCase/processor78/2/polyMesh"
    pointProcAddressing
    faceProcAddressing
    cellProcAddressing
    boundaryProcAddressing

Processor 79
Read processor mesh: "flowCase/processor79"
Writing addressing : "flowCase/processor79/2/polyMesh"
    pointProcAddressing
    faceProcAddressing
    cellProcAddressing
    boundaryProcAddressing

Processor 80
Read processor mesh: "flowCase/processor80"
Writing addressing : "flowCase/processor80/2/polyMesh"
    pointProcAddressing
    faceProcAddressing
    cellProcAddressing
    boundaryProcAddressing

Processor 81
Read processor mesh: "flowCase/processor81"
Writing addressing : "flowCase/processor81/2/polyMesh"
    pointProcAddressing
    faceProcAddressing
    cellProcAddressing
    boundaryProcAddressing

Processor 82
Read processor mesh: "flowCase/processor82"
Writing addressing : "flowCase/processor82/2/polyMesh"
    pointProcAddressing
    faceProcAddressing
    cellProcAddressing
    boundaryProcAddressing

Processor 83
Read processor mesh: "flowCase/processor83"
Writing addressing : "flowCase/processor83/2/polyMesh"
    pointProcAddressing
    faceProcAddressing
    cellProcAddressing
    boundaryProcAddressing

Processor 84
Read processor mesh: "flowCase/processor84"
Writing addressing : "flowCase/processor84/2/polyMesh"
    pointProcAddressing
    faceProcAddressing
    cellProcAddressing
    boundaryProcAddressing

Processor 85
Read processor mesh: "flowCase/processor85"
Writing addressing : "flowCase/processor85/2/polyMesh"
    pointProcAddressing
    faceProcAddressing
    cellProcAddressing
    boundaryProcAddressing

Processor 86
Read processor mesh: "flowCase/processor86"
Writing addressing : "flowCase/processor86/2/polyMesh"
    pointProcAddressing
    faceProcAddressing
    cellProcAddressing
    boundaryProcAddressing

Processor 87
Read processor mesh: "flowCase/processor87"
Writing addressing : "flowCase/processor87/2/polyMesh"
    pointProcAddressing
    faceProcAddressing
    cellProcAddressing
    boundaryProcAddressing

Processor 88
Read processor mesh: "flowCase/processor88"
Writing addressing : "flowCase/processor88/2/polyMesh"
    pointProcAddressing
    faceProcAddressing
    cellProcAddressing
    boundaryProcAddressing

Processor 89
Read processor mesh: "flowCase/processor89"
Writing addressing : "flowCase/processor89/2/polyMesh"
    pointProcAddressing
    faceProcAddressing
    cellProcAddressing
    boundaryProcAddressing

Processor 90
Read processor mesh: "flowCase/processor90"
Writing addressing : "flowCase/processor90/2/polyMesh"
    pointProcAddressing
    faceProcAddressing
    cellProcAddressing
    boundaryProcAddressing

Processor 91
Read processor mesh: "flowCase/processor91"
Writing addressing : "flowCase/processor91/2/polyMesh"
    pointProcAddressing
    faceProcAddressing
    cellProcAddressing
    boundaryProcAddressing

Processor 92
Read processor mesh: "flowCase/processor92"
Writing addressing : "flowCase/processor92/2/polyMesh"
    pointProcAddressing
    faceProcAddressing
    cellProcAddressing
    boundaryProcAddressing

Processor 93
Read processor mesh: "flowCase/processor93"
Writing addressing : "flowCase/processor93/2/polyMesh"
    pointProcAddressing
    faceProcAddressing
    cellProcAddressing
    boundaryProcAddressing

Processor 94
Read processor mesh: "flowCase/processor94"
Writing addressing : "flowCase/processor94/2/polyMesh"
    pointProcAddressing
    faceProcAddressing
    cellProcAddressing
    boundaryProcAddressing

Processor 95
Read processor mesh: "flowCase/processor95"
Writing addressing : "flowCase/processor95/2/polyMesh"
    pointProcAddressing
    faceProcAddressing
    cellProcAddressing
    boundaryProcAddressing

End

