/*---------------------------------------------------------------------------*\
| =========                 |                                                 |
| \\      /  F ield         | OpenFOAM: The Open Source CFD Toolbox           |
|  \\    /   O peration     | Version:  2512                                  |
|   \\  /    A nd           | Website:  www.openfoam.com                      |
|    \\/     M anipulation  |                                                 |
\*---------------------------------------------------------------------------*/
Build  : _87ed40d256-20251219 OPENFOAM=2512 version=v2512
Arch   : "LSB;label=32;scalar=64"
Exec   : /eb/x86_64/software/OpenFOAM/v2512-foss-2025a/OpenFOAM-v2512/platforms/linux64GccDPInt32Opt/bin/snappyHexMesh -parallel
Date   : Jun 23 2026
Time   : 16:06:50
Host   : cnx044.deucalion.macc.fccn.pt
PID    : 3345861
I/O    : uncollated
Case   : /projects/F202500001HPCVLABEPICURE/ofoam.019/guimaraes/cases/flowCase
nProcs : 96
Hosts  :
(
    (cnx044.deucalion.macc.fccn.pt 96)
)
Pstream initialized with:
    node communication : off [type=host] (96 ranks, 1 nodes)
    topology controls  : none
    consensus exchange : 0 (tuning: 0)
    exchange algorithm : 0
    commsType          : nonBlocking
    polling iterations : 0
trapFpe: Floating point exception trapping enabled (FOAM_SIGFPE).
memory pool : not available
fileModificationChecking : Monitoring run-time modified files using timeStampMaster (fileModificationSkew 5, maxFileModificationPolls 20)
allowSystemOperations : Allowing user-supplied system call operations

// * * * * * * * * * * * * * * * * * * * * * * * * * * * * * * * * * * * * * //
Create time

--> FOAM Warning : 
    From void* Foam::dlLibraryTable::openLibrary(const Foam::fileName&, bool)
    in file db/dynamicLibrary/dlLibraryTable/dlLibraryTable.C at line 188
    Could not load "libUseratmosphericModels.so"
libUseratmosphericModels.so: cannot open shared object file: No such file or directory
Create mesh for time = 0

Read mesh in = 0.32 s
Using #calc - line 26 in file "system/snappyHexMeshDict"
Using #codeStream with "/projects/F202500001HPCVLABEPICURE/ofoam.019/guimaraes/cases/flowCase/dynamicCode/platforms/linux64GccDPInt32Opt/lib/libcodeStream_bd90676254c85cc757bbd0ae7d9181e12535d7c0.so"
Could not load "/projects/F202500001HPCVLABEPICURE/ofoam.019/guimaraes/cases/flowCase/dynamicCode/platforms/linux64GccDPInt32Opt/lib/libcodeStream_bd90676254c85cc757bbd0ae7d9181e12535d7c0.so"
/projects/F202500001HPCVLABEPICURE/ofoam.019/guimaraes/cases/flowCase/dynamicCode/platforms/linux64GccDPInt32Opt/lib/libcodeStream_bd90676254c85cc757bbd0ae7d9181e12535d7c0.so: cannot open shared object file: No such file or directory
Creating new library in "dynamicCode/_bd90676254c85cc757bbd0ae7d9181e12535d7c0/platforms/linux64GccDPInt32Opt/lib/libcodeStream_bd90676254c85cc757bbd0ae7d9181e12535d7c0.so"
Invoking wmake libso /projects/F202500001HPCVLABEPICURE/ofoam.019/guimaraes/cases/flowCase/dynamicCode/_bd90676254c85cc757bbd0ae7d9181e12535d7c0
wmake libso /projects/F202500001HPCVLABEPICURE/ofoam.019/guimaraes/cases/flowCase/dynamicCode/_bd90676254c85cc757bbd0ae7d9181e12535d7c0
    ln: ./lnInclude
    dep: codeStreamTemplate.C
    Ctoo: codeStreamTemplate.C
    link: /projects/F202500001HPCVLABEPICURE/ofoam.019/guimaraes/cases/flowCase/dynamicCode/_bd90676254c85cc757bbd0ae7d9181e12535d7c0/../platforms/linux64GccDPInt32Opt/lib/libcodeStream_bd90676254c85cc757bbd0ae7d9181e12535d7c0.so
Using #calc - line 30 in file "system/snappyHexMeshDict"
Using #codeStream with "/projects/F202500001HPCVLABEPICURE/ofoam.019/guimaraes/cases/flowCase/dynamicCode/platforms/linux64GccDPInt32Opt/lib/libcodeStream_e525c6099066e379b8b7dc6528c6a9796a69d887.so"
Could not load "/projects/F202500001HPCVLABEPICURE/ofoam.019/guimaraes/cases/flowCase/dynamicCode/platforms/linux64GccDPInt32Opt/lib/libcodeStream_e525c6099066e379b8b7dc6528c6a9796a69d887.so"
/projects/F202500001HPCVLABEPICURE/ofoam.019/guimaraes/cases/flowCase/dynamicCode/platforms/linux64GccDPInt32Opt/lib/libcodeStream_e525c6099066e379b8b7dc6528c6a9796a69d887.so: cannot open shared object file: No such file or directory
Creating new library in "dynamicCode/_e525c6099066e379b8b7dc6528c6a9796a69d887/platforms/linux64GccDPInt32Opt/lib/libcodeStream_e525c6099066e379b8b7dc6528c6a9796a69d887.so"
Invoking wmake libso /projects/F202500001HPCVLABEPICURE/ofoam.019/guimaraes/cases/flowCase/dynamicCode/_e525c6099066e379b8b7dc6528c6a9796a69d887
wmake libso /projects/F202500001HPCVLABEPICURE/ofoam.019/guimaraes/cases/flowCase/dynamicCode/_e525c6099066e379b8b7dc6528c6a9796a69d887
    ln: ./lnInclude
    dep: codeStreamTemplate.C
    Ctoo: codeStreamTemplate.C
    link: /projects/F202500001HPCVLABEPICURE/ofoam.019/guimaraes/cases/flowCase/dynamicCode/_e525c6099066e379b8b7dc6528c6a9796a69d887/../platforms/linux64GccDPInt32Opt/lib/libcodeStream_e525c6099066e379b8b7dc6528c6a9796a69d887.so
Using #calc - line 31 in file "system/snappyHexMeshDict"
Using #codeStream with "/projects/F202500001HPCVLABEPICURE/ofoam.019/guimaraes/cases/flowCase/dynamicCode/platforms/linux64GccDPInt32Opt/lib/libcodeStream_087c4668da46d87b6a76c2c20f5c294322b5712c.so"
Could not load "/projects/F202500001HPCVLABEPICURE/ofoam.019/guimaraes/cases/flowCase/dynamicCode/platforms/linux64GccDPInt32Opt/lib/libcodeStream_087c4668da46d87b6a76c2c20f5c294322b5712c.so"
/projects/F202500001HPCVLABEPICURE/ofoam.019/guimaraes/cases/flowCase/dynamicCode/platforms/linux64GccDPInt32Opt/lib/libcodeStream_087c4668da46d87b6a76c2c20f5c294322b5712c.so: cannot open shared object file: No such file or directory
Creating new library in "dynamicCode/_087c4668da46d87b6a76c2c20f5c294322b5712c/platforms/linux64GccDPInt32Opt/lib/libcodeStream_087c4668da46d87b6a76c2c20f5c294322b5712c.so"
Invoking wmake libso /projects/F202500001HPCVLABEPICURE/ofoam.019/guimaraes/cases/flowCase/dynamicCode/_087c4668da46d87b6a76c2c20f5c294322b5712c
wmake libso /projects/F202500001HPCVLABEPICURE/ofoam.019/guimaraes/cases/flowCase/dynamicCode/_087c4668da46d87b6a76c2c20f5c294322b5712c
    ln: ./lnInclude
    dep: codeStreamTemplate.C
    Ctoo: codeStreamTemplate.C
    link: /projects/F202500001HPCVLABEPICURE/ofoam.019/guimaraes/cases/flowCase/dynamicCode/_087c4668da46d87b6a76c2c20f5c294322b5712c/../platforms/linux64GccDPInt32Opt/lib/libcodeStream_087c4668da46d87b6a76c2c20f5c294322b5712c.so
Using #calc - line 32 in file "system/snappyHexMeshDict"
Using #codeStream with "/projects/F202500001HPCVLABEPICURE/ofoam.019/guimaraes/cases/flowCase/dynamicCode/platforms/linux64GccDPInt32Opt/lib/libcodeStream_7cc541687df38832553dff88f1e3ce0be06254e1.so"
Could not load "/projects/F202500001HPCVLABEPICURE/ofoam.019/guimaraes/cases/flowCase/dynamicCode/platforms/linux64GccDPInt32Opt/lib/libcodeStream_7cc541687df38832553dff88f1e3ce0be06254e1.so"
/projects/F202500001HPCVLABEPICURE/ofoam.019/guimaraes/cases/flowCase/dynamicCode/platforms/linux64GccDPInt32Opt/lib/libcodeStream_7cc541687df38832553dff88f1e3ce0be06254e1.so: cannot open shared object file: No such file or directory
Creating new library in "dynamicCode/_7cc541687df38832553dff88f1e3ce0be06254e1/platforms/linux64GccDPInt32Opt/lib/libcodeStream_7cc541687df38832553dff88f1e3ce0be06254e1.so"
Invoking wmake libso /projects/F202500001HPCVLABEPICURE/ofoam.019/guimaraes/cases/flowCase/dynamicCode/_7cc541687df38832553dff88f1e3ce0be06254e1
wmake libso /projects/F202500001HPCVLABEPICURE/ofoam.019/guimaraes/cases/flowCase/dynamicCode/_7cc541687df38832553dff88f1e3ce0be06254e1
    ln: ./lnInclude
    dep: codeStreamTemplate.C
    Ctoo: codeStreamTemplate.C
    link: /projects/F202500001HPCVLABEPICURE/ofoam.019/guimaraes/cases/flowCase/dynamicCode/_7cc541687df38832553dff88f1e3ce0be06254e1/../platforms/linux64GccDPInt32Opt/lib/libcodeStream_7cc541687df38832553dff88f1e3ce0be06254e1.so
Using #calc - line 33 in file "system/snappyHexMeshDict"
Using #codeStream with "/projects/F202500001HPCVLABEPICURE/ofoam.019/guimaraes/cases/flowCase/dynamicCode/platforms/linux64GccDPInt32Opt/lib/libcodeStream_a550662f1e87ead2846c22eac2fb1280b8f50f5f.so"
Could not load "/projects/F202500001HPCVLABEPICURE/ofoam.019/guimaraes/cases/flowCase/dynamicCode/platforms/linux64GccDPInt32Opt/lib/libcodeStream_a550662f1e87ead2846c22eac2fb1280b8f50f5f.so"
/projects/F202500001HPCVLABEPICURE/ofoam.019/guimaraes/cases/flowCase/dynamicCode/platforms/linux64GccDPInt32Opt/lib/libcodeStream_a550662f1e87ead2846c22eac2fb1280b8f50f5f.so: cannot open shared object file: No such file or directory
Creating new library in "dynamicCode/_a550662f1e87ead2846c22eac2fb1280b8f50f5f/platforms/linux64GccDPInt32Opt/lib/libcodeStream_a550662f1e87ead2846c22eac2fb1280b8f50f5f.so"
Invoking wmake libso /projects/F202500001HPCVLABEPICURE/ofoam.019/guimaraes/cases/flowCase/dynamicCode/_a550662f1e87ead2846c22eac2fb1280b8f50f5f
wmake libso /projects/F202500001HPCVLABEPICURE/ofoam.019/guimaraes/cases/flowCase/dynamicCode/_a550662f1e87ead2846c22eac2fb1280b8f50f5f
    ln: ./lnInclude
    dep: codeStreamTemplate.C
    Ctoo: codeStreamTemplate.C
    link: /projects/F202500001HPCVLABEPICURE/ofoam.019/guimaraes/cases/flowCase/dynamicCode/_a550662f1e87ead2846c22eac2fb1280b8f50f5f/../platforms/linux64GccDPInt32Opt/lib/libcodeStream_a550662f1e87ead2846c22eac2fb1280b8f50f5f.so
Using #calc - line 35 in file "system/snappyHexMeshDict"
Using #codeStream with "/projects/F202500001HPCVLABEPICURE/ofoam.019/guimaraes/cases/flowCase/dynamicCode/platforms/linux64GccDPInt32Opt/lib/libcodeStream_5dfb7d3d761a18041ed48ea77acfaa91d8f9cfbb.so"
Could not load "/projects/F202500001HPCVLABEPICURE/ofoam.019/guimaraes/cases/flowCase/dynamicCode/platforms/linux64GccDPInt32Opt/lib/libcodeStream_5dfb7d3d761a18041ed48ea77acfaa91d8f9cfbb.so"
/projects/F202500001HPCVLABEPICURE/ofoam.019/guimaraes/cases/flowCase/dynamicCode/platforms/linux64GccDPInt32Opt/lib/libcodeStream_5dfb7d3d761a18041ed48ea77acfaa91d8f9cfbb.so: cannot open shared object file: No such file or directory
Creating new library in "dynamicCode/_5dfb7d3d761a18041ed48ea77acfaa91d8f9cfbb/platforms/linux64GccDPInt32Opt/lib/libcodeStream_5dfb7d3d761a18041ed48ea77acfaa91d8f9cfbb.so"
Invoking wmake libso /projects/F202500001HPCVLABEPICURE/ofoam.019/guimaraes/cases/flowCase/dynamicCode/_5dfb7d3d761a18041ed48ea77acfaa91d8f9cfbb
wmake libso /projects/F202500001HPCVLABEPICURE/ofoam.019/guimaraes/cases/flowCase/dynamicCode/_5dfb7d3d761a18041ed48ea77acfaa91d8f9cfbb
    ln: ./lnInclude
    dep: codeStreamTemplate.C
    Ctoo: codeStreamTemplate.C
    link: /projects/F202500001HPCVLABEPICURE/ofoam.019/guimaraes/cases/flowCase/dynamicCode/_5dfb7d3d761a18041ed48ea77acfaa91d8f9cfbb/../platforms/linux64GccDPInt32Opt/lib/libcodeStream_5dfb7d3d761a18041ed48ea77acfaa91d8f9cfbb.so
Using #calc - line 38 in file "system/snappyHexMeshDict"
Using #codeStream with "/projects/F202500001HPCVLABEPICURE/ofoam.019/guimaraes/cases/flowCase/dynamicCode/platforms/linux64GccDPInt32Opt/lib/libcodeStream_4466952f13ad426ce92e819fa64e70f53ba47c09.so"
Could not load "/projects/F202500001HPCVLABEPICURE/ofoam.019/guimaraes/cases/flowCase/dynamicCode/platforms/linux64GccDPInt32Opt/lib/libcodeStream_4466952f13ad426ce92e819fa64e70f53ba47c09.so"
/projects/F202500001HPCVLABEPICURE/ofoam.019/guimaraes/cases/flowCase/dynamicCode/platforms/linux64GccDPInt32Opt/lib/libcodeStream_4466952f13ad426ce92e819fa64e70f53ba47c09.so: cannot open shared object file: No such file or directory
Creating new library in "dynamicCode/_4466952f13ad426ce92e819fa64e70f53ba47c09/platforms/linux64GccDPInt32Opt/lib/libcodeStream_4466952f13ad426ce92e819fa64e70f53ba47c09.so"
Invoking wmake libso /projects/F202500001HPCVLABEPICURE/ofoam.019/guimaraes/cases/flowCase/dynamicCode/_4466952f13ad426ce92e819fa64e70f53ba47c09
wmake libso /projects/F202500001HPCVLABEPICURE/ofoam.019/guimaraes/cases/flowCase/dynamicCode/_4466952f13ad426ce92e819fa64e70f53ba47c09
    ln: ./lnInclude
    dep: codeStreamTemplate.C
    Ctoo: codeStreamTemplate.C
    link: /projects/F202500001HPCVLABEPICURE/ofoam.019/guimaraes/cases/flowCase/dynamicCode/_4466952f13ad426ce92e819fa64e70f53ba47c09/../platforms/linux64GccDPInt32Opt/lib/libcodeStream_4466952f13ad426ce92e819fa64e70f53ba47c09.so
Using #calc - line 39 in file "system/snappyHexMeshDict"
Using #codeStream with "/projects/F202500001HPCVLABEPICURE/ofoam.019/guimaraes/cases/flowCase/dynamicCode/platforms/linux64GccDPInt32Opt/lib/libcodeStream_4160c7fb6dad017ddf61e89f085c25fd6d433106.so"
Could not load "/projects/F202500001HPCVLABEPICURE/ofoam.019/guimaraes/cases/flowCase/dynamicCode/platforms/linux64GccDPInt32Opt/lib/libcodeStream_4160c7fb6dad017ddf61e89f085c25fd6d433106.so"
/projects/F202500001HPCVLABEPICURE/ofoam.019/guimaraes/cases/flowCase/dynamicCode/platforms/linux64GccDPInt32Opt/lib/libcodeStream_4160c7fb6dad017ddf61e89f085c25fd6d433106.so: cannot open shared object file: No such file or directory
Creating new library in "dynamicCode/_4160c7fb6dad017ddf61e89f085c25fd6d433106/platforms/linux64GccDPInt32Opt/lib/libcodeStream_4160c7fb6dad017ddf61e89f085c25fd6d433106.so"
Invoking wmake libso /projects/F202500001HPCVLABEPICURE/ofoam.019/guimaraes/cases/flowCase/dynamicCode/_4160c7fb6dad017ddf61e89f085c25fd6d433106
wmake libso /projects/F202500001HPCVLABEPICURE/ofoam.019/guimaraes/cases/flowCase/dynamicCode/_4160c7fb6dad017ddf61e89f085c25fd6d433106
    ln: ./lnInclude
    dep: codeStreamTemplate.C
    Ctoo: codeStreamTemplate.C
    link: /projects/F202500001HPCVLABEPICURE/ofoam.019/guimaraes/cases/flowCase/dynamicCode/_4160c7fb6dad017ddf61e89f085c25fd6d433106/../platforms/linux64GccDPInt32Opt/lib/libcodeStream_4160c7fb6dad017ddf61e89f085c25fd6d433106.so
Using #calc - line 40 in file "system/snappyHexMeshDict"
Using #codeStream with "/projects/F202500001HPCVLABEPICURE/ofoam.019/guimaraes/cases/flowCase/dynamicCode/platforms/linux64GccDPInt32Opt/lib/libcodeStream_91f331252de3d3d2280e0cf6fc654a39cf521c57.so"
Could not load "/projects/F202500001HPCVLABEPICURE/ofoam.019/guimaraes/cases/flowCase/dynamicCode/platforms/linux64GccDPInt32Opt/lib/libcodeStream_91f331252de3d3d2280e0cf6fc654a39cf521c57.so"
/projects/F202500001HPCVLABEPICURE/ofoam.019/guimaraes/cases/flowCase/dynamicCode/platforms/linux64GccDPInt32Opt/lib/libcodeStream_91f331252de3d3d2280e0cf6fc654a39cf521c57.so: cannot open shared object file: No such file or directory
Creating new library in "dynamicCode/_91f331252de3d3d2280e0cf6fc654a39cf521c57/platforms/linux64GccDPInt32Opt/lib/libcodeStream_91f331252de3d3d2280e0cf6fc654a39cf521c57.so"
Invoking wmake libso /projects/F202500001HPCVLABEPICURE/ofoam.019/guimaraes/cases/flowCase/dynamicCode/_91f331252de3d3d2280e0cf6fc654a39cf521c57
wmake libso /projects/F202500001HPCVLABEPICURE/ofoam.019/guimaraes/cases/flowCase/dynamicCode/_91f331252de3d3d2280e0cf6fc654a39cf521c57
    ln: ./lnInclude
    dep: codeStreamTemplate.C
    Ctoo: codeStreamTemplate.C
    link: /projects/F202500001HPCVLABEPICURE/ofoam.019/guimaraes/cases/flowCase/dynamicCode/_91f331252de3d3d2280e0cf6fc654a39cf521c57/../platforms/linux64GccDPInt32Opt/lib/libcodeStream_91f331252de3d3d2280e0cf6fc654a39cf521c57.so
Using #calc - line 41 in file "system/snappyHexMeshDict"
Using #codeStream with "/projects/F202500001HPCVLABEPICURE/ofoam.019/guimaraes/cases/flowCase/dynamicCode/platforms/linux64GccDPInt32Opt/lib/libcodeStream_4ebe0625d0b1a45a845f3a2d83a5540789aaca1c.so"
Could not load "/projects/F202500001HPCVLABEPICURE/ofoam.019/guimaraes/cases/flowCase/dynamicCode/platforms/linux64GccDPInt32Opt/lib/libcodeStream_4ebe0625d0b1a45a845f3a2d83a5540789aaca1c.so"
/projects/F202500001HPCVLABEPICURE/ofoam.019/guimaraes/cases/flowCase/dynamicCode/platforms/linux64GccDPInt32Opt/lib/libcodeStream_4ebe0625d0b1a45a845f3a2d83a5540789aaca1c.so: cannot open shared object file: No such file or directory
Creating new library in "dynamicCode/_4ebe0625d0b1a45a845f3a2d83a5540789aaca1c/platforms/linux64GccDPInt32Opt/lib/libcodeStream_4ebe0625d0b1a45a845f3a2d83a5540789aaca1c.so"
Invoking wmake libso /projects/F202500001HPCVLABEPICURE/ofoam.019/guimaraes/cases/flowCase/dynamicCode/_4ebe0625d0b1a45a845f3a2d83a5540789aaca1c
wmake libso /projects/F202500001HPCVLABEPICURE/ofoam.019/guimaraes/cases/flowCase/dynamicCode/_4ebe0625d0b1a45a845f3a2d83a5540789aaca1c
    ln: ./lnInclude
    dep: codeStreamTemplate.C
    Ctoo: codeStreamTemplate.C
    link: /projects/F202500001HPCVLABEPICURE/ofoam.019/guimaraes/cases/flowCase/dynamicCode/_4ebe0625d0b1a45a845f3a2d83a5540789aaca1c/../platforms/linux64GccDPInt32Opt/lib/libcodeStream_4ebe0625d0b1a45a845f3a2d83a5540789aaca1c.so
Using #calc - line 43 in file "system/snappyHexMeshDict"
Using #codeStream with "/projects/F202500001HPCVLABEPICURE/ofoam.019/guimaraes/cases/flowCase/dynamicCode/platforms/linux64GccDPInt32Opt/lib/libcodeStream_77dbaf1778909922be21d6b73cc5cde9126c131f.so"
Could not load "/projects/F202500001HPCVLABEPICURE/ofoam.019/guimaraes/cases/flowCase/dynamicCode/platforms/linux64GccDPInt32Opt/lib/libcodeStream_77dbaf1778909922be21d6b73cc5cde9126c131f.so"
/projects/F202500001HPCVLABEPICURE/ofoam.019/guimaraes/cases/flowCase/dynamicCode/platforms/linux64GccDPInt32Opt/lib/libcodeStream_77dbaf1778909922be21d6b73cc5cde9126c131f.so: cannot open shared object file: No such file or directory
Creating new library in "dynamicCode/_77dbaf1778909922be21d6b73cc5cde9126c131f/platforms/linux64GccDPInt32Opt/lib/libcodeStream_77dbaf1778909922be21d6b73cc5cde9126c131f.so"
Invoking wmake libso /projects/F202500001HPCVLABEPICURE/ofoam.019/guimaraes/cases/flowCase/dynamicCode/_77dbaf1778909922be21d6b73cc5cde9126c131f
wmake libso /projects/F202500001HPCVLABEPICURE/ofoam.019/guimaraes/cases/flowCase/dynamicCode/_77dbaf1778909922be21d6b73cc5cde9126c131f
    ln: ./lnInclude
    dep: codeStreamTemplate.C
    Ctoo: codeStreamTemplate.C
    link: /projects/F202500001HPCVLABEPICURE/ofoam.019/guimaraes/cases/flowCase/dynamicCode/_77dbaf1778909922be21d6b73cc5cde9126c131f/../platforms/linux64GccDPInt32Opt/lib/libcodeStream_77dbaf1778909922be21d6b73cc5cde9126c131f.so

Overall mesh bounding box  : (-3000 -3000 -10) (3000 3000 1870)
Relative tolerance         : 1e-06
Absolute matching distance : 0.0086910529

Reading refinement surfaces.
Read refinement surfaces in = 1.15 s

Reading refinement shells.
Refinement level 2 for all cells inside box1
Refinement level 1 for all cells inside box2
Refinement level according to distance to Mesh_Buildings
    level 5 for all cells within 4 metre.
    level 4 for all cells within 12 metre.
    level 3 for all cells within 25 metre.
Refinement level according to distance to Mesh_Terrain
    level 4 for all cells within 5 metre.
    level 3 for all cells within 15 metre.
Read refinement shells in = 0.07 s

Setting refinement level of surface to be consistent with shells.
For geometry Mesh_Buildings detected 0 uncached triangles out of 696992
For geometry Mesh_Terrain detected 3273984 uncached triangles out of 477445
Checked shell refinement in = 5.54 s

Reading features.
Read edgeMesh Mesh_Buildings.eMesh
    points      : 243099
    edges       : 286329
    boundingBox : (-1522.8335 -1243.8476 14.949093) (1658.8862 1091.1687 176.13273)

Refinement level according to distance to "Mesh_Buildings.eMesh" (243099 points, 286329 edges).
    level 5 for all cells within 0 metre.
Read features in = 1.11 s


Determining initial surface intersections
-----------------------------------------

Edge intersection testing:
    Number of edges             : 78720
    Number of edges to retest   : 0
    Number of intersected edges : 0
Edge intersection testing:
    Number of edges             : 78720
    Number of edges to retest   : 78720
    Number of intersected edges : 2537
Calculated surface intersections in = 0.05 s

Initial mesh : cells:25344  faces:78720  points:28093  unbalance:0.0075757576
Cells per refinement level:
    0	25344
Setting refinement level of surface to be consistent with curvature.
Checked curvature refinement in = 0.01 s


Adding patches for surface regions
----------------------------------

Patch Type                Region                        
----- ----                ------                        
Mesh_Buildings:

3     wall                Buildings                     

Mesh_Terrain:

4     wall                Terrain                       

Added patches in = 0.01 s

Edge intersection testing:
    Number of edges             : 78720
    Number of edges to retest   : 0
    Number of intersected edges : 2537
Decomposition method scotch [96]

Refinement phase
----------------

Found point (0 0 800) in cell 227 on processor 92

Feature refinement iteration 0
------------------------------

Marked for refinement due to explicit features             : 271 cells.
Determined cells to refine in = 0.43 s
Selected for feature refinement : 271 cells (out of 25344)
Edge intersection testing:
    Number of edges             : 85368
    Number of edges to retest   : 8907
    Number of intersected edges : 3596
Refined mesh in = 0.03 s
After refinement feature refinement iteration 0 : cells:27241  faces:85368  points:31000  unbalance:1.2800925
Cells per refinement level:
    0	25073
    1	2168
Balancing since max unbalance 1.2800925 is larger than allowable 0.1
Balanced mesh in = 0.19 s
After balancing feature refinement iteration 0 : cells:27241  faces:85368  points:31000  unbalance:0.0097279836
Cells per refinement level:
    0	25073
    1	2168

Feature refinement iteration 1
------------------------------

Marked for refinement due to explicit features             : 1105 cells.
Determined cells to refine in = 0.41 s
Selected for feature refinement : 1309 cells (out of 27241)
Edge intersection testing:
    Number of edges             : 116763
    Number of edges to retest   : 40838
    Number of intersected edges : 8189
Refined mesh in = 0.03 s
After refinement feature refinement iteration 1 : cells:36404  faces:116763  points:44219  unbalance:2.7050874
Cells per refinement level:
    0	24869
    1	2695
    2	8840
Balancing since max unbalance 2.7050874 is larger than allowable 0.1
Balanced mesh in = 0.22 s
After balancing feature refinement iteration 1 : cells:36404  faces:116763  points:44219  unbalance:0.0084606087
Cells per refinement level:
    0	24869
    1	2695
    2	8840

Feature refinement iteration 2
------------------------------

Marked for refinement due to explicit features             : 3798 cells.
Determined cells to refine in = 0.37 s
Selected for feature refinement : 4754 cells (out of 36404)
Edge intersection testing:
    Number of edges             : 229500
    Number of edges to retest   : 150661
    Number of intersected edges : 26211
Refined mesh in = 0.03 s
After refinement feature refinement iteration 2 : cells:69682  faces:229500  points:91044  unbalance:1.973049
Cells per refinement level:
    0	24751
    1	2801
    2	11746
    3	30384
Balancing since max unbalance 1.973049 is larger than allowable 0.1
Balanced mesh in = 0.26 s
After balancing feature refinement iteration 2 : cells:69682  faces:229500  points:91044  unbalance:0.010820585
Cells per refinement level:
    0	24751
    1	2801
    2	11746
    3	30384

Feature refinement iteration 3
------------------------------

Marked for refinement due to explicit features             : 14129 cells.
Determined cells to refine in = 0.37 s
Selected for feature refinement : 18195 cells (out of 69682)
Edge intersection testing:
    Number of edges             : 657897
    Number of edges to retest   : 566653
    Number of intersected edges : 97011
Refined mesh in = 0.07 s
After refinement feature refinement iteration 3 : cells:197047  faces:657897  points:267071  unbalance:1.2503464
Cells per refinement level:
    0	24722
    1	2668
    2	10994
    3	45631
    4	113032
Balancing since max unbalance 1.2503464 is larger than allowable 0.1
Balanced mesh in = 0.87 s
After balancing feature refinement iteration 3 : cells:197047  faces:657897  points:267071  unbalance:0.010022989
Cells per refinement level:
    0	24722
    1	2668
    2	10994
    3	45631
    4	113032

Feature refinement iteration 4
------------------------------

Marked for refinement due to explicit features             : 50351 cells.
Determined cells to refine in = 0.36 s
Selected for feature refinement : 64512 cells (out of 197047)
Edge intersection testing:
    Number of edges             : 2188812
    Number of edges to retest   : 2048440
    Number of intersected edges : 356346
Refined mesh in = 0.16 s
After refinement feature refinement iteration 4 : cells:648631  faces:2188812  points:903250  unbalance:0.6985158
Cells per refinement level:
    0	24701
    1	2612
    2	10849
    3	49148
    4	158513
    5	402808
Balancing since max unbalance 0.6985158 is larger than allowable 0.1
Balanced mesh in = 2.79 s
After balancing feature refinement iteration 4 : cells:648631  faces:2188812  points:903250  unbalance:0.010001064
Cells per refinement level:
    0	24701
    1	2612
    2	10849
    3	49148
    4	158513
    5	402808

Feature refinement iteration 5
------------------------------

Marked for refinement due to explicit features             : 0 cells.
Determined cells to refine in = 0.41 s
Selected for feature refinement : 0 cells (out of 648631)
Stopping refining since too few cells selected.


Surface refinement iteration 0
------------------------------

Marked for refinement due to surface intersection          : 34993 cells.
Determined cells to refine in = 0.04 s
Selected for refinement : 38328 cells (out of 648631)
Edge intersection testing:
    Number of edges             : 3013554
    Number of edges to retest   : 1942212
    Number of intersected edges : 391536
Refined mesh in = 0.14 s
After refinement surface refinement iteration 0 : cells:916927  faces:3013554  points:1188424  unbalance:0.454877
Cells per refinement level:
    0	21826
    1	25049
    2	13194
    3	56631
    4	213883
    5	586344
Balancing since max unbalance 0.454877 is larger than allowable 0.1
Balanced mesh in = 3.58 s
After balancing surface refinement iteration 0 : cells:916927  faces:3013554  points:1188424  unbalance:0.0099800747
Cells per refinement level:
    0	21826
    1	25049
    2	13194
    3	56631
    4	213883
    5	586344

Surface refinement iteration 1
------------------------------

Marked for refinement due to surface intersection          : 21913 cells.
Determined cells to refine in = 0.06 s
Selected for refinement : 23408 cells (out of 916927)
Edge intersection testing:
    Number of edges             : 3540411
    Number of edges to retest   : 768127
    Number of intersected edges : 429591
Refined mesh in = 0.22 s
After refinement surface refinement iteration 1 : cells:1080783  faces:3540411  points:1387116  unbalance:2.0820322
Cells per refinement level:
    0	20963
    1	18365
    2	119614
    3	69050
    4	259887
    5	592904
Balancing since max unbalance 2.0820322 is larger than allowable 0.1
Balanced mesh in = 4.19 s
After balancing surface refinement iteration 1 : cells:1080783  faces:3540411  points:1387116  unbalance:0.0099622218
Cells per refinement level:
    0	20963
    1	18365
    2	119614
    3	69050
    4	259887
    5	592904

Surface refinement iteration 2
------------------------------

Marked for refinement due to surface intersection          : 63634 cells.
Determined cells to refine in = 0.06 s
Selected for refinement : 67741 cells (out of 1080783)
Edge intersection testing:
    Number of edges             : 5074575
    Number of edges to retest   : 1975756
    Number of intersected edges : 541910
Refined mesh in = 0.32 s
After refinement surface refinement iteration 2 : cells:1554970  faces:5074575  points:1972883  unbalance:2.0490312
Cells per refinement level:
    0	20658
    1	17480
    2	89532
    3	515079
    4	319301
    5	592920
Balancing since max unbalance 2.0490312 is larger than allowable 0.1
Balanced mesh in = 5.84 s
After balancing surface refinement iteration 2 : cells:1554970  faces:5074575  points:1972883  unbalance:0.0099770414
Cells per refinement level:
    0	20658
    1	17480
    2	89532
    3	515079
    4	319301
    5	592920

Surface refinement iteration 3
------------------------------

Marked for refinement due to surface intersection          : 228824 cells.
Determined cells to refine in = 0.06 s
Selected for refinement : 246629 cells (out of 1554970)
Edge intersection testing:
    Number of edges             : 10650009
    Number of edges to retest   : 7120172
    Number of intersected edges : 940351
Refined mesh in = 0.55 s
After refinement surface refinement iteration 3 : cells:3281373  faces:10650009  points:4095533  unbalance:1.2442606
Cells per refinement level:
    0	20524
    1	17062
    2	85271
    3	415703
    4	2149893
    5	592920
Balancing since max unbalance 1.2442606 is larger than allowable 0.1
Balanced mesh in = 10.45 s
After balancing surface refinement iteration 3 : cells:3281373  faces:10650009  points:4095533  unbalance:0.010004654
Cells per refinement level:
    0	20524
    1	17062
    2	85271
    3	415703
    4	2149893
    5	592920

Surface refinement iteration 4
------------------------------

Marked for refinement due to surface intersection          : 4 cells.
Determined cells to refine in = 0.12 s
Selected for refinement : 6 cells (out of 3281373)
Edge intersection testing:
    Number of edges             : 10650150
    Number of edges to retest   : 526
    Number of intersected edges : 940351
Refined mesh in = 0.22 s
After refinement surface refinement iteration 4 : cells:3281415  faces:10650150  points:4095590  unbalance:0.010017325
Cells per refinement level:
    0	20524
    1	17061
    2	85278
    3	415707
    4	2149925
    5	592920
Skipping balancing since max unbalance 0.010017325 is less than allowable 0.1

Surface refinement iteration 5
------------------------------

Marked for refinement due to surface intersection          : 0 cells.
Determined cells to refine in = 0.11 s
Selected for refinement : 0 cells (out of 3281415)
Stopping refining since too few cells selected.


Removing mesh beyond surface intersections
------------------------------------------

Setting cellZones according to locationsInMesh:
Location : (0 0 800)
    cellZone : none

For cellZone none found point (0 0 800) in global region 1 out of 7020 regions.
--> FOAM Warning : 
    From void Foam::meshRefinement::nearestFace(const Foam::labelUList&, const Foam::bitSet&, Foam::autoPtr<Foam::mapDistribute>&, Foam::labelList&, Foam::label) const
    in file meshRefinement/meshRefinement.C at line 526
    Did not visit some faces, e.g. face 17 at (-645.91641 1919.2044 460)
Keeping all cells containing inside points
Selected for keeping : 2520189 cells.
Edge intersection testing:
    Number of edges             : 8389383
    Number of edges to retest   : 738659
    Number of intersected edges : 940351

Shell refinement iteration 0
----------------------------

Marked for refinement due to distance to explicit features : 0 cells.
Marked for refinement due to refinement shells             : 4541 cells.
Determined cells to refine in = 0.5 s
Selected for internal refinement : 4541 cells (out of 2520189)
Edge intersection testing:
    Number of edges             : 8484645
    Number of edges to retest   : 177495
    Number of intersected edges : 940351
Refined mesh in = 0.22 s
After refinement shell refinement iteration 0 : cells:2551976  faces:8484645  points:3385843  unbalance:0.13004198
Cells per refinement level:
    0	19542
    1	16381
    2	83485
    3	218082
    4	1685116
    5	529370
Balancing since max unbalance 0.13004198 is larger than allowable 0.1
Balanced mesh in = 7.51 s
After balancing shell refinement iteration 0 : cells:2551976  faces:8484645  points:3385862  unbalance:0.0099718806
Cells per refinement level:
    0	19542
    1	16381
    2	83485
    3	218082
    4	1685116
    5	529370

Shell refinement iteration 1
----------------------------

Marked for refinement due to distance to explicit features : 0 cells.
Marked for refinement due to refinement shells             : 0 cells.
Determined cells to refine in = 0.06 s
Selected for internal refinement : 0 cells (out of 2551976)
Stopping refining since too few cells selected.


Dangling coarse cells refinement iteration 0
--------------------------------------------

Determined cells to refine in = 0.01 s
Selected for refinement : 340 cells (out of 2551976)
Edge intersection testing:
    Number of edges             : 8489736
    Number of edges to retest   : 44259
    Number of intersected edges : 940342
Refined mesh in = 0.19 s
After refinement coarse cell refinement iteration 0 : cells:2554356  faces:8489736  points:3386539  unbalance:0.012444624
Cells per refinement level:
    0	19542
    1	16381
    2	83473
    3	218044
    4	1685994
    5	530922
Skipping balancing since max unbalance 0.012444624 is less than allowable 0.1

Dangling coarse cells refinement iteration 1
--------------------------------------------

Determined cells to refine in = 0.05 s
Selected for refinement : 14 cells (out of 2554356)
Edge intersection testing:
    Number of edges             : 8489946
    Number of edges to retest   : 1736
    Number of intersected edges : 940342
Refined mesh in = 0.2 s
After refinement coarse cell refinement iteration 1 : cells:2554454  faces:8489946  points:3386567  unbalance:0.012405782
Cells per refinement level:
    0	19542
    1	16381
    2	83473
    3	218044
    4	1685980
    5	531034
Skipping balancing since max unbalance 0.012405782 is less than allowable 0.1

Dangling coarse cells refinement iteration 2
--------------------------------------------

Determined cells to refine in = 0.06 s
Selected for refinement : 1 cells (out of 2554454)
Edge intersection testing:
    Number of edges             : 8489961
    Number of edges to retest   : 121
    Number of intersected edges : 940342
Refined mesh in = 0.18 s
After refinement coarse cell refinement iteration 2 : cells:2554461  faces:8489961  points:3386569  unbalance:0.012403008
Cells per refinement level:
    0	19542
    1	16381
    2	83473
    3	218044
    4	1685979
    5	531042
Skipping balancing since max unbalance 0.012403008 is less than allowable 0.1

Dangling coarse cells refinement iteration 3
--------------------------------------------

Determined cells to refine in = 0.03 s
Selected for refinement : 0 cells (out of 2554461)
Stopping refining since too few cells selected.


Dangling coarse cells refinement iteration 0
--------------------------------------------

Determined cells to refine in = 0.06 s
Selected for refinement : 1 cells (out of 2554461)
Edge intersection testing:
    Number of edges             : 8489973
    Number of edges to retest   : 132
    Number of intersected edges : 940342
Refined mesh in = 0.19 s
After refinement coarse cell refinement iteration 0 : cells:2554468  faces:8489973  points:3386570  unbalance:0.012400234
Cells per refinement level:
    0	19542
    1	16381
    2	83473
    3	218044
    4	1685978
    5	531050
Skipping balancing since max unbalance 0.012400234 is less than allowable 0.1

Dangling coarse cells refinement iteration 1
--------------------------------------------

Determined cells to refine in = 0.08 s
Selected for refinement : 0 cells (out of 2554468)
Stopping refining since too few cells selected.


Refinement transition refinement iteration 0
--------------------------------------------

Determined cells to refine in = 0.07 s
Selected for refinement : 753 cells (out of 2554468)
Edge intersection testing:
    Number of edges             : 8505426
    Number of edges to retest   : 73010
    Number of intersected edges : 939390
Refined mesh in = 0.31 s
After refinement interface cell refinement iteration 0 : cells:2559739  faces:8505426  points:3390733  unbalance:0.018153804
Cells per refinement level:
    0	19542
    1	16381
    2	83473
    3	218044
    4	1685225
    5	537074
Skipping balancing since max unbalance 0.018153804 is less than allowable 0.1

Refinement transition refinement iteration 1
--------------------------------------------

Determined cells to refine in = 0.05 s
Selected for refinement : 98 cells (out of 2559739)
Edge intersection testing:
    Number of edges             : 8507376
    Number of edges to retest   : 9941
    Number of intersected edges : 939140
Refined mesh in = 0.2 s
After refinement interface cell refinement iteration 1 : cells:2560425  faces:8507376  points:3391213  unbalance:0.018705879
Cells per refinement level:
    0	19542
    1	16381
    2	83473
    3	218044
    4	1685127
    5	537858
Skipping balancing since max unbalance 0.018705879 is less than allowable 0.1

Refinement transition refinement iteration 2
--------------------------------------------

Determined cells to refine in = 0.04 s
Selected for refinement : 20 cells (out of 2560425)
Edge intersection testing:
    Number of edges             : 8507775
    Number of edges to retest   : 2137
    Number of intersected edges : 939099
Refined mesh in = 0.2 s
After refinement interface cell refinement iteration 2 : cells:2560565  faces:8507775  points:3391312  unbalance:0.019175065
Cells per refinement level:
    0	19542
    1	16381
    2	83473
    3	218044
    4	1685107
    5	538018
Skipping balancing since max unbalance 0.019175065 is less than allowable 0.1

Refinement transition refinement iteration 3
--------------------------------------------

Determined cells to refine in = 0.07 s
Selected for refinement : 1 cells (out of 2560565)
Edge intersection testing:
    Number of edges             : 8507796
    Number of edges to retest   : 102
    Number of intersected edges : 939100
Refined mesh in = 0.18 s
After refinement interface cell refinement iteration 3 : cells:2560572  faces:8507796  points:3391318  unbalance:0.01943472
Cells per refinement level:
    0	19542
    1	16381
    2	83473
    3	218044
    4	1685106
    5	538026
Skipping balancing since max unbalance 0.01943472 is less than allowable 0.1

Refinement transition refinement iteration 4
--------------------------------------------

Determined cells to refine in = 0.04 s
Selected for refinement : 0 cells (out of 2560572)
Stopping refining since too few cells selected.


Splitting mesh at surface intersections
---------------------------------------

Introducing baffles for 939100 faces that are intersected by the surface.

Setting cellZones according to locationsInMesh:
Location : (0 0 800)
    cellZone : none

For cellZone none found point (0 0 800) in global region 0 out of 7020 regions.
Edge intersection testing:
    Number of edges             : 9446705
    Number of edges to retest   : 6037078
    Number of intersected edges : 1859421
Created baffles in = 0.68 s


After introducing baffles : cells:2560572  faces:9446705  points:3391548  unbalance:0.01943472
Cells per refinement level:
    0	19542
    1	16381
    2	83473
    3	218044
    4	1685106
    5	538026

Introducing baffles to block off problem cells
----------------------------------------------

markFacesOnProblemCells : Deleting all-anchor surface cells only if snapping them violates mesh quality constraints:
    snapped/original cell volume < 0.5
    face area                    < -1
    non-orthogonality            > 65

markFacesOnProblemCells : marked 1502592 additional internal faces to be converted into baffles.
markFacesOnProblemCells : prevented 90678 internal faces from getting converted into baffles.
Analyzed problem cells in = 1.46 s


Introducing baffles to delete problem cells.

Edge intersection testing:
    Number of edges             : 10929737
    Number of edges to retest   : 4638890
    Number of intersected edges : 1862146
Created baffles in = 0.39 s


After introducing baffles : cells:2560572  faces:10929737  points:3413546  unbalance:0.01943472
Cells per refinement level:
    0	19542
    1	16381
    2	83473
    3	218044
    4	1685106
    5	538026
Setting cellZones according to locationsInMesh:
Location : (0 0 800)
    cellZone : none

For cellZone none found point (0 0 800) in global region 0 out of 734638 regions.
Edge intersection testing:
    Number of edges             : 10929737
    Number of edges to retest   : 7226036
    Number of intersected edges : 1862146

Remove unreachable sections of mesh
-----------------------------------

Keeping all cells containing points 1((0 0 800))
Selected for keeping : 1714605 cells.
Edge intersection testing:
    Number of edges             : 5982998
    Number of edges to retest   : 0
    Number of intersected edges : 825248
Split mesh in = 1.06 s


After subsetting : cells:1714605  faces:5982998  points:2557221  unbalance:0.14218377
Cells per refinement level:
    0	19542
    1	16381
    2	83473
    3	217428
    4	1087644
    5	290137

Introducing zones for interfaces
--------------------------------

Setting cellZones according to locationsInMesh:
Location : (0 0 800)
    cellZone : none

For cellZone none found point (0 0 800) in global region 0 out of 1 regions.
Setting faceZones according to neighbouring cellZones:

CellZones:
    square	size:690424
    innerCircle	size:1024181

Edge intersection testing:
    Number of edges             : 5982998
    Number of edges to retest   : 0
    Number of intersected edges : 825248

Handling cells with snap problems
---------------------------------

Introducing baffles for 825248 faces that are intersected by the surface.

Setting cellZones according to locationsInMesh:
Location : (0 0 800)
    cellZone : none

For cellZone none found point (0 0 800) in global region 0 out of 1 regions.
Edge intersection testing:
    Number of edges             : 5982998
    Number of edges to retest   : 2860328
    Number of intersected edges : 825248
Created baffles in = 0.56 s


After introducing baffles : cells:1714605  faces:5982998  points:2557221  unbalance:0.14218377
Cells per refinement level:
    0	19542
    1	16381
    2	83473
    3	217428
    4	1087644
    5	290137

Introducing baffles to block off problem cells
----------------------------------------------

markFacesOnProblemCells : Deleting all-anchor surface cells only if snapping them violates mesh quality constraints:
    snapped/original cell volume < 0.5
    face area                    < -1
    non-orthogonality            > 65

markFacesOnProblemCells : marked 290 additional internal faces to be converted into baffles.
markFacesOnProblemCells : prevented 7408 internal faces from getting converted into baffles.
Analyzed problem cells in = 0.74 s


Introducing baffles to delete problem cells.

Edge intersection testing:
    Number of edges             : 5983288
    Number of edges to retest   : 2656
    Number of intersected edges : 825252
Created baffles in = 0.12 s


After introducing baffles : cells:1714605  faces:5983288  points:2557221  unbalance:0.14218377
Cells per refinement level:
    0	19542
    1	16381
    2	83473
    3	217428
    4	1087644
    5	290137
Setting cellZones according to locationsInMesh:
Location : (0 0 800)
    cellZone : none

For cellZone none found point (0 0 800) in global region 0 out of 170 regions.
Edge intersection testing:
    Number of edges             : 5983288
    Number of edges to retest   : 2860531
    Number of intersected edges : 825252

Remove unreachable sections of mesh
-----------------------------------

Keeping all cells containing points 1((0 0 800))
Selected for keeping : 1714436 cells.
Edge intersection testing:
    Number of edges             : 5982274
    Number of edges to retest   : 0
    Number of intersected edges : 824846
Split mesh in = 0.45 s


After subsetting : cells:1714436  faces:5982274  points:2556828  unbalance:0.14288314
Cells per refinement level:
    0	19542
    1	16381
    2	83473
    3	217428
    4	1087644
    5	289968

Merge free-standing baffles
---------------------------

freeStandingBaffles : detected 2785 free-standing baffles out of 2905

freeStandingBaffles : detected 206 planar (within 30 degrees) free-standing baffles out of 2785

Detected free-standing baffles : 206
Edge intersection testing:
    Number of edges             : 5982068
    Number of edges to retest   : 206
    Number of intersected edges : 824673

Introducing baffles to block off problem cells
----------------------------------------------

markFacesOnProblemCells : Deleting all-anchor surface cells only if snapping them violates mesh quality constraints:
    snapped/original cell volume < 0.5
    face area                    < -1
    non-orthogonality            > 65

markFacesOnProblemCells : marked 5 additional internal faces to be converted into baffles.
markFacesOnProblemCells : prevented 7410 internal faces from getting converted into baffles.
Analyzed problem cells in = 0.88 s


Introducing baffles to delete problem cells.

Edge intersection testing:
    Number of edges             : 5982073
    Number of edges to retest   : 42
    Number of intersected edges : 824675
Created baffles in = 0.12 s


After introducing baffles : cells:1714436  faces:5982073  points:2556828  unbalance:0.14288314
Cells per refinement level:
    0	19542
    1	16381
    2	83473
    3	217428
    4	1087644
    5	289968

Remove unreachable sections of mesh
-----------------------------------

Keeping all cells containing points 1((0 0 800))
Selected for keeping : 1714434 cells.
Edge intersection testing:
    Number of edges             : 5982061
    Number of edges to retest   : 0
    Number of intersected edges : 824671
Merged free-standing baffles in = 0.12 s


dupNonManifoldPoints : Found : 4061 non-manifold points (out of 2661403)
Edge intersection testing:
    Number of edges             : 5982061
    Number of edges to retest   : 0
    Number of intersected edges : 824671
Detected unsplittable baffles : 5
Edge intersection testing:
    Number of edges             : 5982056
    Number of edges to retest   : 5
    Number of intersected edges : 824667
Merged free-standing baffles in = 0.24 s.

Merge refined boundary faces
----------------------------

Merging 2894 sets of faces.

Edge intersection testing:
    Number of edges             : 5978866
    Number of edges to retest   : 20310
    Number of intersected edges : 821656

Undo iteration 0
----------------
Checking faces in error :
    non-orthogonality > 65  degrees                        : 426
    faces with face pyramid volume < 1e-13                 : 0
    faces with face-decomposition tet quality < 1e-30      : 0
    faces with concavity > 80  degrees                     : 0
    faces with skewness > 4   (internal) or 5   (boundary) : 0
    faces with interpolation weights (0..1)  < 0.05        : 0
    faces with volume ratio of neighbour cells < 0.01      : 0
    faces with face twist < 0.05                           : 0
    faces on cells with determinant < 0.001                : 0
Masters that need to be restored:0

Merging all points on surface that
- are used by only two boundary faces and
- make an angle with a cosine of more than 0.70710678.

Removing 3071 straight edge points ...

Edge intersection testing:
    Number of edges             : 5978866
    Number of edges to retest   : 22546
    Number of intersected edges : 821649

Undo iteration 0
----------------
Checking faces in error :
    non-orthogonality > 65  degrees                        : 426
    faces with face pyramid volume < 1e-13                 : 0
    faces with face-decomposition tet quality < 1e-30      : 0
    faces with concavity > 80  degrees                     : 0
    faces with skewness > 4   (internal) or 5   (boundary) : 0
    faces with interpolation weights (0..1)  < 0.05        : 0
    faces with volume ratio of neighbour cells < 0.01      : 0
    faces with face twist < 0.05                           : 0
    faces on cells with determinant < 0.001                : 0
Detected 0 error faces on boundaries that have been merged. These will be restored to their original faces.

Detected 426 error faces in mesh. Restoring neighbours of faces in error.

Edge intersection testing:
    Number of edges             : 5978866
    Number of edges to retest   : 18266
    Number of intersected edges : 821649

Doing final balancing
---------------------

Found 0 zoned faces to keep together.
Found 0 separated coupled faces to keep together.
Refined mesh : cells:1714434  faces:5978866  points:2557755  unbalance:0.010005635
Cells per refinement level:
    0	19542
    1	16381
    2	83473
    3	217428
    4	1087644
    5	289966
Writing mesh to time 1
Wrote mesh in = 0.13 s.
Mesh refined in = 56.15 s.

Morphing phase
--------------

Duplicating 0 points on faceZones of type boundary
Snapping to features in 15 iterations ...
Constructing mesh displacer ...
Using mesh parameters 
{
    maxNonOrtho     65;
    maxBoundarySkewness 5;
    maxInternalSkewness 4;
    maxConcave      80;
    minVol          1e-13;
    minTetQuality   1e-30;
    minArea         -1;
    minTwist        0.05;
    minDeterminant  0.001;
    minFaceWeight   0.05;
    minVolRatio     0.01;
    minTriangleTwist -1;
    minVolCollapseRatio 0.5;
    nSmoothScale    4;
    errorReduction  0.75;
    relaxed
    {
        maxNonOrtho     75;
    }
}


Checking initial mesh ...
Checking faces in error :
    non-orthogonality > 65  degrees                        : 424
    faces with face pyramid volume < 1e-13                 : 0
    faces with face-decomposition tet quality < 1e-30      : 0
    faces with concavity > 80  degrees                     : 0
    faces with skewness > 4   (internal) or 5   (boundary) : 0
    faces with interpolation weights (0..1)  < 0.05        : 0
    faces with volume ratio of neighbour cells < 0.01      : 0
    faces with face twist < 0.05                           : 0
    faces on cells with determinant < 0.001                : 0
Detected 424 illegal faces (concave, zero area or negative cell pyramid volume)
Checked initial mesh in = 6.05 s


Smoothing patch points ...
Smoothing iteration 0
Found 8017 non-manifold point(s).

Scaling iteration 0
Moving mesh using displacement scaling : min:1 max:1
Checking faces in error :
    non-orthogonality > 65  degrees                        : 432
    faces with face pyramid volume < 1e-13                 : 0
    faces with face-decomposition tet quality < 1e-30      : 0
    faces with concavity > 80  degrees                     : 1
    faces with skewness > 4   (internal) or 5   (boundary) : 0
    faces with interpolation weights (0..1)  < 0.05        : 0
    faces with volume ratio of neighbour cells < 0.01      : 0
    faces with face twist < 0.05                           : 0
    faces on cells with determinant < 0.001                : 0

Scaling iteration 1
Moving mesh using displacement scaling : min:0.75 max:1
Checking faces in error :
    non-orthogonality > 65  degrees                        : 431
    faces with face pyramid volume < 1e-13                 : 0
    faces with face-decomposition tet quality < 1e-30      : 0
    faces with concavity > 80  degrees                     : 0
    faces with skewness > 4   (internal) or 5   (boundary) : 0
    faces with interpolation weights (0..1)  < 0.05        : 0
    faces with volume ratio of neighbour cells < 0.01      : 0
    faces with face twist < 0.05                           : 0
    faces on cells with determinant < 0.001                : 0

Scaling iteration 2
Moving mesh using displacement scaling : min:0.5625 max:1
Checking faces in error :
    non-orthogonality > 65  degrees                        : 430
    faces with face pyramid volume < 1e-13                 : 0
    faces with face-decomposition tet quality < 1e-30      : 0
    faces with concavity > 80  degrees                     : 0
    faces with skewness > 4   (internal) or 5   (boundary) : 0
    faces with interpolation weights (0..1)  < 0.05        : 0
    faces with volume ratio of neighbour cells < 0.01      : 0
    faces with face twist < 0.05                           : 0
    faces on cells with determinant < 0.001                : 0

Scaling iteration 3
Moving mesh using displacement scaling : min:0.421875 max:1
Checking faces in error :
    non-orthogonality > 65  degrees                        : 429
    faces with face pyramid volume < 1e-13                 : 0
    faces with face-decomposition tet quality < 1e-30      : 0
    faces with concavity > 80  degrees                     : 0
    faces with skewness > 4   (internal) or 5   (boundary) : 0
    faces with interpolation weights (0..1)  < 0.05        : 0
    faces with volume ratio of neighbour cells < 0.01      : 0
    faces with face twist < 0.05                           : 0
    faces on cells with determinant < 0.001                : 0

Scaling iteration 4
Moving mesh using displacement scaling : min:0.31640625 max:1
Checking faces in error :
    non-orthogonality > 65  degrees                        : 427
    faces with face pyramid volume < 1e-13                 : 0
    faces with face-decomposition tet quality < 1e-30      : 0
    faces with concavity > 80  degrees                     : 0
    faces with skewness > 4   (internal) or 5   (boundary) : 0
    faces with interpolation weights (0..1)  < 0.05        : 0
    faces with volume ratio of neighbour cells < 0.01      : 0
    faces with face twist < 0.05                           : 0
    faces on cells with determinant < 0.001                : 0

Scaling iteration 5
Moving mesh using displacement scaling : min:0.23730469 max:1
Checking faces in error :
    non-orthogonality > 65  degrees                        : 427
    faces with face pyramid volume < 1e-13                 : 0
    faces with face-decomposition tet quality < 1e-30      : 0
    faces with concavity > 80  degrees                     : 0
    faces with skewness > 4   (internal) or 5   (boundary) : 0
    faces with interpolation weights (0..1)  < 0.05        : 0
    faces with volume ratio of neighbour cells < 0.01      : 0
    faces with face twist < 0.05                           : 0
    faces on cells with determinant < 0.001                : 0

Scaling iteration 6
Moving mesh using displacement scaling : min:0.17797852 max:1
Checking faces in error :
    non-orthogonality > 65  degrees                        : 427
    faces with face pyramid volume < 1e-13                 : 0
    faces with face-decomposition tet quality < 1e-30      : 0
    faces with concavity > 80  degrees                     : 0
    faces with skewness > 4   (internal) or 5   (boundary) : 0
    faces with interpolation weights (0..1)  < 0.05        : 0
    faces with volume ratio of neighbour cells < 0.01      : 0
    faces with face twist < 0.05                           : 0
    faces on cells with determinant < 0.001                : 0

Scaling iteration 7
Moving mesh using displacement scaling : min:0.13348389 max:1
Checking faces in error :
    non-orthogonality > 65  degrees                        : 427
    faces with face pyramid volume < 1e-13                 : 0
    faces with face-decomposition tet quality < 1e-30      : 0
    faces with concavity > 80  degrees                     : 0
    faces with skewness > 4   (internal) or 5   (boundary) : 0
    faces with interpolation weights (0..1)  < 0.05        : 0
    faces with volume ratio of neighbour cells < 0.01      : 0
    faces with face twist < 0.05                           : 0
    faces on cells with determinant < 0.001                : 0

Scaling iteration 8
Moving mesh using displacement scaling : min:0.10011292 max:1
Checking faces in error :
    non-orthogonality > 65  degrees                        : 427
    faces with face pyramid volume < 1e-13                 : 0
    faces with face-decomposition tet quality < 1e-30      : 0
    faces with concavity > 80  degrees                     : 0
    faces with skewness > 4   (internal) or 5   (boundary) : 0
    faces with interpolation weights (0..1)  < 0.05        : 0
    faces with volume ratio of neighbour cells < 0.01      : 0
    faces with face twist < 0.05                           : 0
    faces on cells with determinant < 0.001                : 0

Scaling iteration 9
Moving mesh using displacement scaling : min:0.075084686 max:1
Checking faces in error :
    non-orthogonality > 65  degrees                        : 427
    faces with face pyramid volume < 1e-13                 : 0
    faces with face-decomposition tet quality < 1e-30      : 0
    faces with concavity > 80  degrees                     : 0
    faces with skewness > 4   (internal) or 5   (boundary) : 0
    faces with interpolation weights (0..1)  < 0.05        : 0
    faces with volume ratio of neighbour cells < 0.01      : 0
    faces with face twist < 0.05                           : 0
    faces on cells with determinant < 0.001                : 0

Scaling iteration 10
Moving mesh using displacement scaling : min:0.056313515 max:1
Checking faces in error :
    non-orthogonality > 65  degrees                        : 427
    faces with face pyramid volume < 1e-13                 : 0
    faces with face-decomposition tet quality < 1e-30      : 0
    faces with concavity > 80  degrees                     : 0
    faces with skewness > 4   (internal) or 5   (boundary) : 0
    faces with interpolation weights (0..1)  < 0.05        : 0
    faces with volume ratio of neighbour cells < 0.01      : 0
    faces with face twist < 0.05                           : 0
    faces on cells with determinant < 0.001                : 0

Scaling iteration 11
Moving mesh using displacement scaling : min:0.042235136 max:1
Checking faces in error :
    non-orthogonality > 65  degrees                        : 427
    faces with face pyramid volume < 1e-13                 : 0
    faces with face-decomposition tet quality < 1e-30      : 0
    faces with concavity > 80  degrees                     : 0
    faces with skewness > 4   (internal) or 5   (boundary) : 0
    faces with interpolation weights (0..1)  < 0.05        : 0
    faces with volume ratio of neighbour cells < 0.01      : 0
    faces with face twist < 0.05                           : 0
    faces on cells with determinant < 0.001                : 0

Scaling iteration 12
Moving mesh using displacement scaling : min:0.031676352 max:1
Checking faces in error :
    non-orthogonality > 65  degrees                        : 427
    faces with face pyramid volume < 1e-13                 : 0
    faces with face-decomposition tet quality < 1e-30      : 0
    faces with concavity > 80  degrees                     : 0
    faces with skewness > 4   (internal) or 5   (boundary) : 0
    faces with interpolation weights (0..1)  < 0.05        : 0
    faces with volume ratio of neighbour cells < 0.01      : 0
    faces with face twist < 0.05                           : 0
    faces on cells with determinant < 0.001                : 0

Scaling iteration 13
Moving mesh using displacement scaling : min:0.023757264 max:1
Checking faces in error :
    non-orthogonality > 65  degrees                        : 426
    faces with face pyramid volume < 1e-13                 : 0
    faces with face-decomposition tet quality < 1e-30      : 0
    faces with concavity > 80  degrees                     : 0
    faces with skewness > 4   (internal) or 5   (boundary) : 0
    faces with interpolation weights (0..1)  < 0.05        : 0
    faces with volume ratio of neighbour cells < 0.01      : 0
    faces with face twist < 0.05                           : 0
    faces on cells with determinant < 0.001                : 0

Scaling iteration 14
Moving mesh using displacement scaling : min:0.017817948 max:1
Checking faces in error :
    non-orthogonality > 65  degrees                        : 426
    faces with face pyramid volume < 1e-13                 : 0
    faces with face-decomposition tet quality < 1e-30      : 0
    faces with concavity > 80  degrees                     : 0
    faces with skewness > 4   (internal) or 5   (boundary) : 0
    faces with interpolation weights (0..1)  < 0.05        : 0
    faces with volume ratio of neighbour cells < 0.01      : 0
    faces with face twist < 0.05                           : 0
    faces on cells with determinant < 0.001                : 0

Scaling iteration 15
Displacement scaling for error reduction set to 0.
Moving mesh using displacement scaling : min:0.013363461 max:1
Checking faces in error :
    non-orthogonality > 65  degrees                        : 426
    faces with face pyramid volume < 1e-13                 : 0
    faces with face-decomposition tet quality < 1e-30      : 0
    faces with concavity > 80  degrees                     : 0
    faces with skewness > 4   (internal) or 5   (boundary) : 0
    faces with interpolation weights (0..1)  < 0.05        : 0
    faces with volume ratio of neighbour cells < 0.01      : 0
    faces with face twist < 0.05                           : 0
    faces on cells with determinant < 0.001                : 0

Scaling iteration 16
Moving mesh using displacement scaling : min:0 max:1
Checking faces in error :
    non-orthogonality > 65  degrees                        : 424
    faces with face pyramid volume < 1e-13                 : 0
    faces with face-decomposition tet quality < 1e-30      : 0
    faces with concavity > 80  degrees                     : 0
    faces with skewness > 4   (internal) or 5   (boundary) : 0
    faces with interpolation weights (0..1)  < 0.05        : 0
    faces with volume ratio of neighbour cells < 0.01      : 0
    faces with face twist < 0.05                           : 0
    faces on cells with determinant < 0.001                : 0
Successfully moved mesh

Smoothing iteration 1
Found 0 non-manifold point(s).

Scaling iteration 0
Moving mesh using displacement scaling : min:1 max:1
Checking faces in error :
    non-orthogonality > 65  degrees                        : 437
    faces with face pyramid volume < 1e-13                 : 0
    faces with face-decomposition tet quality < 1e-30      : 14
    faces with concavity > 80  degrees                     : 0
    faces with skewness > 4   (internal) or 5   (boundary) : 0
    faces with interpolation weights (0..1)  < 0.05        : 0
    faces with volume ratio of neighbour cells < 0.01      : 1
    faces with face twist < 0.05                           : 0
    faces on cells with determinant < 0.001                : 0

Scaling iteration 1
Moving mesh using displacement scaling : min:0.75 max:1
Checking faces in error :
    non-orthogonality > 65  degrees                        : 436
    faces with face pyramid volume < 1e-13                 : 0
    faces with face-decomposition tet quality < 1e-30      : 11
    faces with concavity > 80  degrees                     : 0
    faces with skewness > 4   (internal) or 5   (boundary) : 0
    faces with interpolation weights (0..1)  < 0.05        : 0
    faces with volume ratio of neighbour cells < 0.01      : 1
    faces with face twist < 0.05                           : 0
    faces on cells with determinant < 0.001                : 0

Scaling iteration 2
Moving mesh using displacement scaling : min:0.5625 max:1
Checking faces in error :
    non-orthogonality > 65  degrees                        : 436
    faces with face pyramid volume < 1e-13                 : 0
    faces with face-decomposition tet quality < 1e-30      : 2
    faces with concavity > 80  degrees                     : 0
    faces with skewness > 4   (internal) or 5   (boundary) : 0
    faces with interpolation weights (0..1)  < 0.05        : 0
    faces with volume ratio of neighbour cells < 0.01      : 0
    faces with face twist < 0.05                           : 0
    faces on cells with determinant < 0.001                : 0

Scaling iteration 3
Moving mesh using displacement scaling : min:0.421875 max:1
Checking faces in error :
    non-orthogonality > 65  degrees                        : 433
    faces with face pyramid volume < 1e-13                 : 0
    faces with face-decomposition tet quality < 1e-30      : 2
    faces with concavity > 80  degrees                     : 0
    faces with skewness > 4   (internal) or 5   (boundary) : 0
    faces with interpolation weights (0..1)  < 0.05        : 0
    faces with volume ratio of neighbour cells < 0.01      : 0
    faces with face twist < 0.05                           : 0
    faces on cells with determinant < 0.001                : 0

Scaling iteration 4
Moving mesh using displacement scaling : min:0.31640625 max:1
Checking faces in error :
    non-orthogonality > 65  degrees                        : 433
    faces with face pyramid volume < 1e-13                 : 0
    faces with face-decomposition tet quality < 1e-30      : 0
    faces with concavity > 80  degrees                     : 0
    faces with skewness > 4   (internal) or 5   (boundary) : 0
    faces with interpolation weights (0..1)  < 0.05        : 0
    faces with volume ratio of neighbour cells < 0.01      : 0
    faces with face twist < 0.05                           : 1
    faces on cells with determinant < 0.001                : 0

Scaling iteration 5
Moving mesh using displacement scaling : min:0.23730469 max:1
Checking faces in error :
    non-orthogonality > 65  degrees                        : 433
    faces with face pyramid volume < 1e-13                 : 0
    faces with face-decomposition tet quality < 1e-30      : 0
    faces with concavity > 80  degrees                     : 0
    faces with skewness > 4   (internal) or 5   (boundary) : 0
    faces with interpolation weights (0..1)  < 0.05        : 0
    faces with volume ratio of neighbour cells < 0.01      : 0
    faces with face twist < 0.05                           : 0
    faces on cells with determinant < 0.001                : 0

Scaling iteration 6
Moving mesh using displacement scaling : min:0.17797852 max:1
Checking faces in error :
    non-orthogonality > 65  degrees                        : 432
    faces with face pyramid volume < 1e-13                 : 0
    faces with face-decomposition tet quality < 1e-30      : 0
    faces with concavity > 80  degrees                     : 0
    faces with skewness > 4   (internal) or 5   (boundary) : 0
    faces with interpolation weights (0..1)  < 0.05        : 0
    faces with volume ratio of neighbour cells < 0.01      : 0
    faces with face twist < 0.05                           : 0
    faces on cells with determinant < 0.001                : 0

Scaling iteration 7
Moving mesh using displacement scaling : min:0.13348389 max:1
Checking faces in error :
    non-orthogonality > 65  degrees                        : 432
    faces with face pyramid volume < 1e-13                 : 0
    faces with face-decomposition tet quality < 1e-30      : 0
    faces with concavity > 80  degrees                     : 0
    faces with skewness > 4   (internal) or 5   (boundary) : 0
    faces with interpolation weights (0..1)  < 0.05        : 0
    faces with volume ratio of neighbour cells < 0.01      : 0
    faces with face twist < 0.05                           : 0
    faces on cells with determinant < 0.001                : 0

Scaling iteration 8
Moving mesh using displacement scaling : min:0.10011292 max:1
Checking faces in error :
    non-orthogonality > 65  degrees                        : 431
    faces with face pyramid volume < 1e-13                 : 0
    faces with face-decomposition tet quality < 1e-30      : 0
    faces with concavity > 80  degrees                     : 0
    faces with skewness > 4   (internal) or 5   (boundary) : 0
    faces with interpolation weights (0..1)  < 0.05        : 0
    faces with volume ratio of neighbour cells < 0.01      : 0
    faces with face twist < 0.05                           : 0
    faces on cells with determinant < 0.001                : 0

Scaling iteration 9
Moving mesh using displacement scaling : min:0.075084686 max:1
Checking faces in error :
    non-orthogonality > 65  degrees                        : 431
    faces with face pyramid volume < 1e-13                 : 0
    faces with face-decomposition tet quality < 1e-30      : 0
    faces with concavity > 80  degrees                     : 0
    faces with skewness > 4   (internal) or 5   (boundary) : 0
    faces with interpolation weights (0..1)  < 0.05        : 0
    faces with volume ratio of neighbour cells < 0.01      : 0
    faces with face twist < 0.05                           : 0
    faces on cells with determinant < 0.001                : 0

Scaling iteration 10
Moving mesh using displacement scaling : min:0.056313515 max:1
Checking faces in error :
    non-orthogonality > 65  degrees                        : 430
    faces with face pyramid volume < 1e-13                 : 0
    faces with face-decomposition tet quality < 1e-30      : 0
    faces with concavity > 80  degrees                     : 0
    faces with skewness > 4   (internal) or 5   (boundary) : 0
    faces with interpolation weights (0..1)  < 0.05        : 0
    faces with volume ratio of neighbour cells < 0.01      : 0
    faces with face twist < 0.05                           : 0
    faces on cells with determinant < 0.001                : 0

Scaling iteration 11
Moving mesh using displacement scaling : min:0.042235136 max:1
Checking faces in error :
    non-orthogonality > 65  degrees                        : 430
    faces with face pyramid volume < 1e-13                 : 0
    faces with face-decomposition tet quality < 1e-30      : 0
    faces with concavity > 80  degrees                     : 0
    faces with skewness > 4   (internal) or 5   (boundary) : 0
    faces with interpolation weights (0..1)  < 0.05        : 0
    faces with volume ratio of neighbour cells < 0.01      : 0
    faces with face twist < 0.05                           : 0
    faces on cells with determinant < 0.001                : 0

Scaling iteration 12
Moving mesh using displacement scaling : min:0.031676352 max:1
Checking faces in error :
    non-orthogonality > 65  degrees                        : 430
    faces with face pyramid volume < 1e-13                 : 0
    faces with face-decomposition tet quality < 1e-30      : 0
    faces with concavity > 80  degrees                     : 0
    faces with skewness > 4   (internal) or 5   (boundary) : 0
    faces with interpolation weights (0..1)  < 0.05        : 0
    faces with volume ratio of neighbour cells < 0.01      : 0
    faces with face twist < 0.05                           : 0
    faces on cells with determinant < 0.001                : 0

Scaling iteration 13
Moving mesh using displacement scaling : min:0.023757264 max:1
Checking faces in error :
    non-orthogonality > 65  degrees                        : 430
    faces with face pyramid volume < 1e-13                 : 0
    faces with face-decomposition tet quality < 1e-30      : 0
    faces with concavity > 80  degrees                     : 0
    faces with skewness > 4   (internal) or 5   (boundary) : 0
    faces with interpolation weights (0..1)  < 0.05        : 0
    faces with volume ratio of neighbour cells < 0.01      : 0
    faces with face twist < 0.05                           : 0
    faces on cells with determinant < 0.001                : 0

Scaling iteration 14
Moving mesh using displacement scaling : min:0.017817948 max:1
Checking faces in error :
    non-orthogonality > 65  degrees                        : 430
    faces with face pyramid volume < 1e-13                 : 0
    faces with face-decomposition tet quality < 1e-30      : 0
    faces with concavity > 80  degrees                     : 0
    faces with skewness > 4   (internal) or 5   (boundary) : 0
    faces with interpolation weights (0..1)  < 0.05        : 0
    faces with volume ratio of neighbour cells < 0.01      : 0
    faces with face twist < 0.05                           : 0
    faces on cells with determinant < 0.001                : 0

Scaling iteration 15
Displacement scaling for error reduction set to 0.
Moving mesh using displacement scaling : min:0.013363461 max:1
Checking faces in error :
    non-orthogonality > 65  degrees                        : 430
    faces with face pyramid volume < 1e-13                 : 0
    faces with face-decomposition tet quality < 1e-30      : 0
    faces with concavity > 80  degrees                     : 0
    faces with skewness > 4   (internal) or 5   (boundary) : 0
    faces with interpolation weights (0..1)  < 0.05        : 0
    faces with volume ratio of neighbour cells < 0.01      : 0
    faces with face twist < 0.05                           : 0
    faces on cells with determinant < 0.001                : 0

Scaling iteration 16
Moving mesh using displacement scaling : min:0 max:1
Checking faces in error :
    non-orthogonality > 65  degrees                        : 424
    faces with face pyramid volume < 1e-13                 : 0
    faces with face-decomposition tet quality < 1e-30      : 0
    faces with concavity > 80  degrees                     : 0
    faces with skewness > 4   (internal) or 5   (boundary) : 0
    faces with interpolation weights (0..1)  < 0.05        : 0
    faces with volume ratio of neighbour cells < 0.01      : 0
    faces with face twist < 0.05                           : 0
    faces on cells with determinant < 0.001                : 0
Successfully moved mesh

Smoothing iteration 2
Found 0 non-manifold point(s).

Scaling iteration 0
Moving mesh using displacement scaling : min:1 max:1
Checking faces in error :
    non-orthogonality > 65  degrees                        : 439
    faces with face pyramid volume < 1e-13                 : 0
    faces with face-decomposition tet quality < 1e-30      : 22
    faces with concavity > 80  degrees                     : 0
    faces with skewness > 4   (internal) or 5   (boundary) : 0
    faces with interpolation weights (0..1)  < 0.05        : 11
    faces with volume ratio of neighbour cells < 0.01      : 9
    faces with face twist < 0.05                           : 2
    faces on cells with determinant < 0.001                : 5

Scaling iteration 1
Moving mesh using displacement scaling : min:0.75 max:1
Checking faces in error :
    non-orthogonality > 65  degrees                        : 439
    faces with face pyramid volume < 1e-13                 : 0
    faces with face-decomposition tet quality < 1e-30      : 14
    faces with concavity > 80  degrees                     : 0
    faces with skewness > 4   (internal) or 5   (boundary) : 0
    faces with interpolation weights (0..1)  < 0.05        : 10
    faces with volume ratio of neighbour cells < 0.01      : 8
    faces with face twist < 0.05                           : 3
    faces on cells with determinant < 0.001                : 0

Scaling iteration 2
Moving mesh using displacement scaling : min:0.5625 max:1
Checking faces in error :
    non-orthogonality > 65  degrees                        : 439
    faces with face pyramid volume < 1e-13                 : 0
    faces with face-decomposition tet quality < 1e-30      : 13
    faces with concavity > 80  degrees                     : 0
    faces with skewness > 4   (internal) or 5   (boundary) : 0
    faces with interpolation weights (0..1)  < 0.05        : 7
    faces with volume ratio of neighbour cells < 0.01      : 9
    faces with face twist < 0.05                           : 2
    faces on cells with determinant < 0.001                : 0

Scaling iteration 3
Moving mesh using displacement scaling : min:0.421875 max:1
Checking faces in error :
    non-orthogonality > 65  degrees                        : 439
    faces with face pyramid volume < 1e-13                 : 0
    faces with face-decomposition tet quality < 1e-30      : 12
    faces with concavity > 80  degrees                     : 0
    faces with skewness > 4   (internal) or 5   (boundary) : 0
    faces with interpolation weights (0..1)  < 0.05        : 5
    faces with volume ratio of neighbour cells < 0.01      : 7
    faces with face twist < 0.05                           : 1
    faces on cells with determinant < 0.001                : 0

Scaling iteration 4
Moving mesh using displacement scaling : min:0.31640625 max:1
Checking faces in error :
    non-orthogonality > 65  degrees                        : 439
    faces with face pyramid volume < 1e-13                 : 0
    faces with face-decomposition tet quality < 1e-30      : 12
    faces with concavity > 80  degrees                     : 0
    faces with skewness > 4   (internal) or 5   (boundary) : 0
    faces with interpolation weights (0..1)  < 0.05        : 3
    faces with volume ratio of neighbour cells < 0.01      : 5
    faces with face twist < 0.05                           : 1
    faces on cells with determinant < 0.001                : 0

Scaling iteration 5
Moving mesh using displacement scaling : min:0.23730469 max:1
Checking faces in error :
    non-orthogonality > 65  degrees                        : 439
    faces with face pyramid volume < 1e-13                 : 0
    faces with face-decomposition tet quality < 1e-30      : 11
    faces with concavity > 80  degrees                     : 0
    faces with skewness > 4   (internal) or 5   (boundary) : 0
    faces with interpolation weights (0..1)  < 0.05        : 2
    faces with volume ratio of neighbour cells < 0.01      : 4
    faces with face twist < 0.05                           : 1
    faces on cells with determinant < 0.001                : 0

Scaling iteration 6
Moving mesh using displacement scaling : min:0.17797852 max:1
Checking faces in error :
    non-orthogonality > 65  degrees                        : 439
    faces with face pyramid volume < 1e-13                 : 0
    faces with face-decomposition tet quality < 1e-30      : 10
    faces with concavity > 80  degrees                     : 0
    faces with skewness > 4   (internal) or 5   (boundary) : 0
    faces with interpolation weights (0..1)  < 0.05        : 1
    faces with volume ratio of neighbour cells < 0.01      : 4
    faces with face twist < 0.05                           : 3
    faces on cells with determinant < 0.001                : 0

Scaling iteration 7
Moving mesh using displacement scaling : min:0.13348389 max:1
Checking faces in error :
    non-orthogonality > 65  degrees                        : 439
    faces with face pyramid volume < 1e-13                 : 0
    faces with face-decomposition tet quality < 1e-30      : 4
    faces with concavity > 80  degrees                     : 0
    faces with skewness > 4   (internal) or 5   (boundary) : 0
    faces with interpolation weights (0..1)  < 0.05        : 1
    faces with volume ratio of neighbour cells < 0.01      : 2
    faces with face twist < 0.05                           : 3
    faces on cells with determinant < 0.001                : 0

Scaling iteration 8
Moving mesh using displacement scaling : min:0.10011292 max:1
Checking faces in error :
    non-orthogonality > 65  degrees                        : 438
    faces with face pyramid volume < 1e-13                 : 0
    faces with face-decomposition tet quality < 1e-30      : 2
    faces with concavity > 80  degrees                     : 0
    faces with skewness > 4   (internal) or 5   (boundary) : 0
    faces with interpolation weights (0..1)  < 0.05        : 1
    faces with volume ratio of neighbour cells < 0.01      : 1
    faces with face twist < 0.05                           : 3
    faces on cells with determinant < 0.001                : 0

Scaling iteration 9
Moving mesh using displacement scaling : min:0.075084686 max:1
Checking faces in error :
    non-orthogonality > 65  degrees                        : 437
    faces with face pyramid volume < 1e-13                 : 0
    faces with face-decomposition tet quality < 1e-30      : 2
    faces with concavity > 80  degrees                     : 0
    faces with skewness > 4   (internal) or 5   (boundary) : 0
    faces with interpolation weights (0..1)  < 0.05        : 1
    faces with volume ratio of neighbour cells < 0.01      : 0
    faces with face twist < 0.05                           : 2
    faces on cells with determinant < 0.001                : 0

Scaling iteration 10
[...]
Baffle points     : 5543 of which attracted to :
    feature point : 0
    feature edge  : 5537
    rest          : 6

Initially selected 136779 mesh points out of 865864 for reverse attraction.
Selected 245273 mesh points out of 865864 for reverse attraction.
Stringing feature edges : changed 9425 points
Stringing feature edges : changed 180 points
Stringing feature edges : changed 14 points
Stringing feature edges : changed 0 points
Attraction:
    linear   : max:(7.7769841 1.0794515 6.9356206) avg:(-0.00033957927 0.00028769968 -0.0036908355)
    feature  : max:(-22.745131 2.6167882 -3.0642127) avg:(0.00083341401 0.00074300827 -0.011739769)
Feature analysis : total master points :844188 of which attracted to :
    feature point   : 30188
    feature edge    : 89717
    nearest surface : 0
    rest            : 724283

--> FOAM Warning : Displacement (0.40741768 0.14638657 0.0042694983) at mesh point 1360 coord (-1201.8874 507.86053 64.562807) points through the surrounding patch faces
Smoothing displacement ...
Iteration 0
Iteration 10
Iteration 20
Iteration 30
Iteration 40
Displacement smoothed in = 0.48 s


Moving mesh ...

Iteration 0
Moving mesh using displacement scaling : min:1 max:1
Checking faces in error :
    non-orthogonality > 65  degrees                        : 1715
    faces with face pyramid volume < 1e-13                 : 4279
    faces with face-decomposition tet quality < 1e-30      : 18640
    faces with concavity > 80  degrees                     : 837
    faces with skewness > 4   (internal) or 5   (boundary) : 72
    faces with interpolation weights (0..1)  < 0.05        : 136
    faces with volume ratio of neighbour cells < 0.01      : 59
    faces with face twist < 0.05                           : 1942
    faces on cells with determinant < 0.001                : 206

Iteration 1
Moving mesh using displacement scaling : min:0.75 max:1
Checking faces in error :
    non-orthogonality > 65  degrees                        : 1219
    faces with face pyramid volume < 1e-13                 : 2949
    faces with face-decomposition tet quality < 1e-30      : 15525
    faces with concavity > 80  degrees                     : 675
    faces with skewness > 4   (internal) or 5   (boundary) : 59
    faces with interpolation weights (0..1)  < 0.05        : 133
    faces with volume ratio of neighbour cells < 0.01      : 52
    faces with face twist < 0.05                           : 1866
    faces on cells with determinant < 0.001                : 207

Iteration 2
Moving mesh using displacement scaling : min:0.5625 max:1
Checking faces in error :
    non-orthogonality > 65  degrees                        : 995
    faces with face pyramid volume < 1e-13                 : 2146
    faces with face-decomposition tet quality < 1e-30      : 13308
    faces with concavity > 80  degrees                     : 593
    faces with skewness > 4   (internal) or 5   (boundary) : 51
    faces with interpolation weights (0..1)  < 0.05        : 118
    faces with volume ratio of neighbour cells < 0.01      : 37
    faces with face twist < 0.05                           : 1955
    faces on cells with determinant < 0.001                : 132

Iteration 3
Moving mesh using displacement scaling : min:0.421875 max:1
Checking faces in error :
    non-orthogonality > 65  degrees                        : 812
    faces with face pyramid volume < 1e-13                 : 1556
    faces with face-decomposition tet quality < 1e-30      : 11706
    faces with concavity > 80  degrees                     : 533
    faces with skewness > 4   (internal) or 5   (boundary) : 40
    faces with interpolation weights (0..1)  < 0.05        : 108
    faces with volume ratio of neighbour cells < 0.01      : 36
    faces with face twist < 0.05                           : 2109
    faces on cells with determinant < 0.001                : 73

Iteration 4
Moving mesh using displacement scaling : min:0.31640625 max:1
Checking faces in error :
    non-orthogonality > 65  degrees                        : 726
    faces with face pyramid volume < 1e-13                 : 1054
    faces with face-decomposition tet quality < 1e-30      : 10509
    faces with concavity > 80  degrees                     : 491
    faces with skewness > 4   (internal) or 5   (boundary) : 42
    faces with interpolation weights (0..1)  < 0.05        : 98
    faces with volume ratio of neighbour cells < 0.01      : 30
    faces with face twist < 0.05                           : 2244
    faces on cells with determinant < 0.001                : 53

Iteration 5
Moving mesh using displacement scaling : min:0.23730469 max:1
Checking faces in error :
    non-orthogonality > 65  degrees                        : 649
    faces with face pyramid volume < 1e-13                 : 694
    faces with face-decomposition tet quality < 1e-30      : 9329
    faces with concavity > 80  degrees                     : 476
    faces with skewness > 4   (internal) or 5   (boundary) : 36
    faces with interpolation weights (0..1)  < 0.05        : 96
    faces with volume ratio of neighbour cells < 0.01      : 24
    faces with face twist < 0.05                           : 2495
    faces on cells with determinant < 0.001                : 51

Iteration 6
Moving mesh using displacement scaling : min:0.17797852 max:1
Checking faces in error :
    non-orthogonality > 65  degrees                        : 619
    faces with face pyramid volume < 1e-13                 : 408
    faces with face-decomposition tet quality < 1e-30      : 8240
    faces with concavity > 80  degrees                     : 465
    faces with skewness > 4   (internal) or 5   (boundary) : 34
    faces with interpolation weights (0..1)  < 0.05        : 97
    faces with volume ratio of neighbour cells < 0.01      : 24
    faces with face twist < 0.05                           : 2845
    faces on cells with determinant < 0.001                : 51

Iteration 7
Moving mesh using displacement scaling : min:0.13348389 max:1
Checking faces in error :
    non-orthogonality > 65  degrees                        : 577
    faces with face pyramid volume < 1e-13                 : 218
    faces with face-decomposition tet quality < 1e-30      : 7109
    faces with concavity > 80  degrees                     : 455
    faces with skewness > 4   (internal) or 5   (boundary) : 34
    faces with interpolation weights (0..1)  < 0.05        : 95
    faces with volume ratio of neighbour cells < 0.01      : 22
    faces with face twist < 0.05                           : 3354
    faces on cells with determinant < 0.001                : 48

Iteration 8
Moving mesh using displacement scaling : min:0.10011292 max:1
Checking faces in error :
    non-orthogonality > 65  degrees                        : 562
    faces with face pyramid volume < 1e-13                 : 102
    faces with face-decomposition tet quality < 1e-30      : 5954
    faces with concavity > 80  degrees                     : 437
    faces with skewness > 4   (internal) or 5   (boundary) : 29
    faces with interpolation weights (0..1)  < 0.05        : 86
    faces with volume ratio of neighbour cells < 0.01      : 22
    faces with face twist < 0.05                           : 3881
    faces on cells with determinant < 0.001                : 39

Iteration 9
Moving mesh using displacement scaling : min:0.075084686 max:1
Checking faces in error :
    non-orthogonality > 65  degrees                        : 555
    faces with face pyramid volume < 1e-13                 : 54
    faces with face-decomposition tet quality < 1e-30      : 4846
    faces with concavity > 80  degrees                     : 418
    faces with skewness > 4   (internal) or 5   (boundary) : 28
    faces with interpolation weights (0..1)  < 0.05        : 85
    faces with volume ratio of neighbour cells < 0.01      : 21
    faces with face twist < 0.05                           : 4406
    faces on cells with determinant < 0.001                : 37

Iteration 10
Moving mesh using displacement scaling : min:0.056313515 max:1
Checking faces in error :
    non-orthogonality > 65  degrees                        : 545
    faces with face pyramid volume < 1e-13                 : 29
    faces with face-decomposition tet quality < 1e-30      : 3932
    faces with concavity > 80  degrees                     : 395
    faces with skewness > 4   (internal) or 5   (boundary) : 33
    faces with interpolation weights (0..1)  < 0.05        : 80
    faces with volume ratio of neighbour cells < 0.01      : 23
    faces with face twist < 0.05                           : 4797
    faces on cells with determinant < 0.001                : 33

Iteration 11
Moving mesh using displacement scaling : min:0.042235136 max:1
Checking faces in error :
    non-orthogonality > 65  degrees                        : 535
    faces with face pyramid volume < 1e-13                 : 14
    faces with face-decomposition tet quality < 1e-30      : 3266
    faces with concavity > 80  degrees                     : 378
    faces with skewness > 4   (internal) or 5   (boundary) : 26
    faces with interpolation weights (0..1)  < 0.05        : 75
    faces with volume ratio of neighbour cells < 0.01      : 21
    faces with face twist < 0.05                           : 4957
    faces on cells with determinant < 0.001                : 34

Iteration 12
Moving mesh using displacement scaling : min:0.031676352 max:1
Checking faces in error :
    non-orthogonality > 65  degrees                        : 530
    faces with face pyramid volume < 1e-13                 : 8
    faces with face-decomposition tet quality < 1e-30      : 2790
    faces with concavity > 80  degrees                     : 363
    faces with skewness > 4   (internal) or 5   (boundary) : 23
    faces with interpolation weights (0..1)  < 0.05        : 77
    faces with volume ratio of neighbour cells < 0.01      : 21
    faces with face twist < 0.05                           : 4976
    faces on cells with determinant < 0.001                : 34

Iteration 13
Moving mesh using displacement scaling : min:0.023757264 max:1
Checking faces in error :
    non-orthogonality > 65  degrees                        : 522
    faces with face pyramid volume < 1e-13                 : 4
    faces with face-decomposition tet quality < 1e-30      : 2446
    faces with concavity > 80  degrees                     : 348
    faces with skewness > 4   (internal) or 5   (boundary) : 22
    faces with interpolation weights (0..1)  < 0.05        : 67
    faces with volume ratio of neighbour cells < 0.01      : 22
    faces with face twist < 0.05                           : 4896
    faces on cells with determinant < 0.001                : 34

Iteration 14
Moving mesh using displacement scaling : min:0.017817948 max:1
Checking faces in error :
    non-orthogonality > 65  degrees                        : 520
    faces with face pyramid volume < 1e-13                 : 3
    faces with face-decomposition tet quality < 1e-30      : 2208
    faces with concavity > 80  degrees                     : 329
    faces with skewness > 4   (internal) or 5   (boundary) : 23
    faces with interpolation weights (0..1)  < 0.05        : 68
    faces with volume ratio of neighbour cells < 0.01      : 21
    faces with face twist < 0.05                           : 4744
    faces on cells with determinant < 0.001                : 30

Iteration 15
Displacement scaling for error reduction set to 0.
Moving mesh using displacement scaling : min:0.013363461 max:1
Checking faces in error :
    non-orthogonality > 65  degrees                        : 515
    faces with face pyramid volume < 1e-13                 : 3
    faces with face-decomposition tet quality < 1e-30      : 1997
    faces with concavity > 80  degrees                     : 312
    faces with skewness > 4   (internal) or 5   (boundary) : 19
    faces with interpolation weights (0..1)  < 0.05        : 62
    faces with volume ratio of neighbour cells < 0.01      : 17
    faces with face twist < 0.05                           : 4586
    faces on cells with determinant < 0.001                : 30

Iteration 16
Moving mesh using displacement scaling : min:0 max:1
Checking faces in error :
    non-orthogonality > 65  degrees                        : 438
    faces with face pyramid volume < 1e-13                 : 0
    faces with face-decomposition tet quality < 1e-30      : 130
    faces with concavity > 80  degrees                     : 13
    faces with skewness > 4   (internal) or 5   (boundary) : 1
    faces with interpolation weights (0..1)  < 0.05        : 3
    faces with volume ratio of neighbour cells < 0.01      : 3
    faces with face twist < 0.05                           : 179
    faces on cells with determinant < 0.001                : 0

Iteration 17
Moving mesh using displacement scaling : min:0 max:1
Checking faces in error :
    non-orthogonality > 65  degrees                        : 424
    faces with face pyramid volume < 1e-13                 : 0
    faces with face-decomposition tet quality < 1e-30      : 13
    faces with concavity > 80  degrees                     : 1
    faces with skewness > 4   (internal) or 5   (boundary) : 0
    faces with interpolation weights (0..1)  < 0.05        : 1
    faces with volume ratio of neighbour cells < 0.01      : 0
    faces with face twist < 0.05                           : 26
    faces on cells with determinant < 0.001                : 0

Iteration 18
Moving mesh using displacement scaling : min:0 max:1
Checking faces in error :
    non-orthogonality > 65  degrees                        : 424
    faces with face pyramid volume < 1e-13                 : 0
    faces with face-decomposition tet quality < 1e-30      : 2
    faces with concavity > 80  degrees                     : 0
    faces with skewness > 4   (internal) or 5   (boundary) : 0
    faces with interpolation weights (0..1)  < 0.05        : 0
    faces with volume ratio of neighbour cells < 0.01      : 0
    faces with face twist < 0.05                           : 3
    faces on cells with determinant < 0.001                : 0

Iteration 19
Moving mesh using displacement scaling : min:0 max:1
Checking faces in error :
    non-orthogonality > 65  degrees                        : 424
    faces with face pyramid volume < 1e-13                 : 0
    faces with face-decomposition tet quality < 1e-30      : 0
    faces with concavity > 80  degrees                     : 0
    faces with skewness > 4   (internal) or 5   (boundary) : 0
    faces with interpolation weights (0..1)  < 0.05        : 0
    faces with volume ratio of neighbour cells < 0.01      : 0
    faces with face twist < 0.05                           : 0
    faces on cells with determinant < 0.001                : 0
Successfully moved mesh
Moved mesh in = 4.51 s


Repatching faces according to nearest surface ...
Repatched 11662 faces in = 0.14 s


Edge intersection testing:
    Number of edges             : 5978866
    Number of edges to retest   : 3244359
    Number of intersected edges : 823872
Merging 87579 sets of faces.

Edge intersection testing:
    Number of edges             : 5864366
    Number of edges to retest   : 361392
    Number of intersected edges : 710767

Undo iteration 0
----------------
Checking faces in error :
    non-orthogonality > 65  degrees                        : 449
    faces with face pyramid volume < 1e-13                 : 1
    faces with face-decomposition tet quality < 1e-30      : 305
    faces with concavity > 80  degrees                     : 0
    faces with skewness > 4   (internal) or 5   (boundary) : 0
    faces with interpolation weights (0..1)  < 0.05        : 5
    faces with volume ratio of neighbour cells < 0.01      : 14
    faces with face twist < 0.05                           : 54
    faces on cells with determinant < 0.001                : 0
Masters that need to be restored:530
Edge intersection testing:
    Number of edges             : 5865243
    Number of edges to retest   : 3447
    Number of intersected edges : 711562


Undo iteration 1
----------------
Checking faces in error :
    non-orthogonality > 65  degrees                        : 424
    faces with face pyramid volume < 1e-13                 : 0
    faces with face-decomposition tet quality < 1e-30      : 0
    faces with concavity > 80  degrees                     : 0
    faces with skewness > 4   (internal) or 5   (boundary) : 0
    faces with interpolation weights (0..1)  < 0.05        : 0
    faces with volume ratio of neighbour cells < 0.01      : 0
    faces with face twist < 0.05                           : 0
    faces on cells with determinant < 0.001                : 0
Masters that need to be restored:0

Merging all points on surface that
- are used by only two boundary faces and
- make an angle with a cosine of more than 0.8660254.

Removing 59432 straight edge points ...

Edge intersection testing:
    Number of edges             : 5865243
    Number of edges to retest   : 312835
    Number of intersected edges : 711511

Undo iteration 0
----------------
Checking faces in error :
    non-orthogonality > 65  degrees                        : 427
    faces with face pyramid volume < 1e-13                 : 1
    faces with face-decomposition tet quality < 1e-30      : 28
    faces with concavity > 80  degrees                     : 0
    faces with skewness > 4   (internal) or 5   (boundary) : 0
    faces with interpolation weights (0..1)  < 0.05        : 1
    faces with volume ratio of neighbour cells < 0.01      : 7
    faces with face twist < 0.05                           : 3
    faces on cells with determinant < 0.001                : 0
Detected 4 error faces on boundaries that have been merged. These will be restored to their original faces.

Edge intersection testing:
    Number of edges             : 5865243
    Number of edges to retest   : 23
    Number of intersected edges : 711511

Undo iteration 1
----------------
Checking faces in error :
    non-orthogonality > 65  degrees                        : 425
    faces with face pyramid volume < 1e-13                 : 0
    faces with face-decomposition tet quality < 1e-30      : 27
    faces with concavity > 80  degrees                     : 0
    faces with skewness > 4   (internal) or 5   (boundary) : 0
    faces with interpolation weights (0..1)  < 0.05        : 1
    faces with volume ratio of neighbour cells < 0.01      : 7
    faces with face twist < 0.05                           : 2
    faces on cells with determinant < 0.001                : 0
Detected 0 error faces on boundaries that have been merged. These will be restored to their original faces.

Detected 462 error faces in mesh. Restoring neighbours of faces in error.

Edge intersection testing:
    Number of edges             : 5865243
    Number of edges to retest   : 19798
    Number of intersected edges : 711516
Snapped mesh : cells:1714434  faces:5865243  points:2472336  unbalance:0.010005635
Cells per refinement level:
    0	19542
    1	16381
    2	83473
    3	217428
    4	1087644
    5	289966
Writing mesh to time 2
Wrote mesh in = 0.15 s.
Mesh snapped in = 87.11 s.
Checking final mesh ...
Checking faces in error :
    non-orthogonality > 65  degrees                        : 424
    faces with face pyramid volume < 1e-13                 : 0
    faces with face-decomposition tet quality < 1e-30      : 0
    faces with concavity > 80  degrees                     : 0
    faces with skewness > 4   (internal) or 5   (boundary) : 0
    faces with interpolation weights (0..1)  < 0.05        : 0
    faces with volume ratio of neighbour cells < 0.01      : 0
    faces with face twist < 0.05                           : 0
    faces on cells with determinant < 0.001                : 0
Finished meshing with 424 illegal faces (concave, zero area or negative cell pyramid volume)
Finished meshing in = 151.62 s.
End

Finalising parallel run
